
*** ChampSim Multicore Out-of-Order Simulator ***

Warmup Instructions: 10000
Simulation Instructions: 25000
Number of CPUs: 1
Off-chip DRAM Size: 4 GiB Channels: 1 Width: 64-bit Data Rate: 3200 MT/s

VirtualMemory physical capacity: 8376320 num_ppages: 2045
VirtualMemory page size: 4194304 log2_page_size: 22

CPU 0 runs ../champsimtrace/602.gcc_s-2226B.champsimtrace.xz
CPU 0 Bimodal branch predictor
Basic BTB sets: 1024 ways: 8 indirect buffer size: 4096 RAS size: 64
cpu0_L2C my multi-lookahead prefetcher
multi_lookahead prefetch line: 18446744073709551615
multi_lookahead prefetch line: 18446744073709551615
multi_lookahead prefetch line: 18446744073709551615
multi_lookahead prefetch line: 18446744073709551615
multi_lookahead prefetch line: 18446744073709551615
multi_lookahead prefetch line: 18446744073709551615
multi_lookahead prefetch line: 18446744073709551615
multi_lookahead prefetch line: 18446744073709551615
multi_lookahead prefetch line: 18446744073709551615
multi_lookahead prefetch line: 18446744073709551615
multi_lookahead prefetch line: 18446744073709551615
multi_lookahead prefetch line: 18446744073709551615
multi_lookahead prefetch line: 18446744073709551615
multi_lookahead prefetch line: 18446744073709551615
multi_lookahead prefetch line: 18446744073709551615
multi_lookahead prefetch line: 18446744073709551615
multi_lookahead prefetch line: 18446744073709551615
multi_lookahead prefetch line: 18446744073709551615
multi_lookahead prefetch line: 18446744073709551615
multi_lookahead prefetch line: 18446744073709551615
multi_lookahead prefetch line: 18446744073709551615
multi_lookahead prefetch line: 18446744073709551615
multi_lookahead prefetch line: 18446744073709551615
multi_lookahead prefetch line: 18446744073709551615
multi_lookahead prefetch line: 18446744073709551615
multi_lookahead prefetch line: 18446744073709551615
multi_lookahead prefetch line: 18446744073709551615
multi_lookahead prefetch line: 18446744073709551615
multi_lookahead prefetch line: 18446744073709551615
multi_lookahead prefetch line: 18446744073709551615
multi_lookahead prefetch line: 18446744073709551615
multi_lookahead prefetch line: 18446744073709551615
multi_lookahead prefetch line: 18446744073709551615
multi_lookahead prefetch line: 18446744073709551615
multi_lookahead prefetch line: 18446744073709551615
multi_lookahead prefetch line: 18446744073709551615
multi_lookahead prefetch line: 18446744073709551615
multi_lookahead prefetch line: 18446744073709551615
multi_lookahead prefetch line: 18446744073709551615
multi_lookahead prefetch line: 18446744073709551615
multi_lookahead prefetch line: 18446744073709551615
multi_lookahead prefetch line: 18446744073709551615
multi_lookahead prefetch line: 18446744073709551615
multi_lookahead prefetch line: 18446744073709551615
multi_lookahead prefetch line: 18446744073709551615
multi_lookahead prefetch line: 18446744073709551615
multi_lookahead prefetch line: 18446744073709551615
multi_lookahead prefetch line: 18446744073709551615
multi_lookahead prefetch line: 18446744073709551615
multi_lookahead prefetch line: 18446744073709551615
multi_lookahead prefetch line: 18446744073709551615
multi_lookahead prefetch line: 18446744073709551615
multi_lookahead prefetch line: 18446744073709551615
multi_lookahead prefetch line: 18446744073709551615
multi_lookahead prefetch line: 18446744073709551615
multi_lookahead prefetch line: 18446744073709551615
multi_lookahead prefetch line: 18446744073709551615
multi_lookahead prefetch line: 18446744073709551615
multi_lookahead prefetch line: 18446744073709551615
multi_lookahead prefetch line: 18446744073709551615
multi_lookahead prefetch line: 18446744073709551615
multi_lookahead prefetch line: 18446744073709551615
multi_lookahead prefetch line: 18446744073709551615
multi_lookahead prefetch line: 18446744073709551615
multi_lookahead prefetch line: 18446744073709551615
multi_lookahead prefetch line: 18446744073709551615
multi_lookahead prefetch line: 18446744073709551615
multi_lookahead prefetch line: 18446744073709551615
multi_lookahead prefetch line: 18446744073709551615
multi_lookahead prefetch line: 18446744073709551615
multi_lookahead prefetch line: 18446744073709551615
multi_lookahead prefetch line: 18446744073709551615
multi_lookahead prefetch line: 18446744073709551615
multi_lookahead prefetch line: 18446744073709551615
multi_lookahead prefetch line: 18446744073709551615
multi_lookahead prefetch line: 18446744073709551615
multi_lookahead prefetch line: 18446744073709551615
multi_lookahead prefetch line: 18446744073709551615
multi_lookahead prefetch line: 18446744073709551615
multi_lookahead prefetch line: 18446744073709551615
multi_lookahead prefetch line: 18446744073709551615
multi_lookahead prefetch line: 18446744073709551615
multi_lookahead prefetch line: 18446744073709551615
multi_lookahead prefetch line: 18446744073709551615
multi_lookahead prefetch line: 18446744073709551615
multi_lookahead prefetch line: 18446744073709551615
multi_lookahead prefetch line: 18446744073709551615
multi_lookahead prefetch line: 18446744073709551615
multi_lookahead prefetch line: 18446744073709551615
multi_lookahead prefetch line: 18446744073709551615
multi_lookahead prefetch line: 18446744073709551615
multi_lookahead prefetch line: 18446744073709551615
multi_lookahead prefetch line: 18446744073709551615
multi_lookahead prefetch line: 18446744073709551615
multi_lookahead prefetch line: 18446744073709551615
multi_lookahead prefetch line: 18446744073709551615
multi_lookahead prefetch line: 18446744073709551615
multi_lookahead prefetch line: 18446744073709551615
multi_lookahead prefetch line: 18446744073709551615
multi_lookahead prefetch line: 18446744073709551615
multi_lookahead prefetch line: 18446744073709551615
multi_lookahead prefetch line: 18446744073709551615
multi_lookahead prefetch line: 18446744073709551615
multi_lookahead prefetch line: 18446744073709551615
multi_lookahead prefetch line: 18446744073709551615
multi_lookahead prefetch line: 18446744073709551615
multi_lookahead prefetch line: 18446744073709551615
multi_lookahead prefetch line: 18446744073709551615
multi_lookahead prefetch line: 18446744073709551615
multi_lookahead prefetch line: 18446744073709551615
multi_lookahead prefetch line: 18446744073709551615
multi_lookahead prefetch line: 18446744073709551615
multi_lookahead prefetch line: 18446744073709551615
multi_lookahead prefetch line: 18446744073709551615
multi_lookahead prefetch line: 18446744073709551615
multi_lookahead prefetch line: 18446744073709551615
multi_lookahead prefetch line: 18446744073709551615
multi_lookahead prefetch line: 18446744073709551615
multi_lookahead prefetch line: 18446744073709551615
multi_lookahead prefetch line: 18446744073709551615
multi_lookahead prefetch line: 18446744073709551615
multi_lookahead prefetch line: 18446744073709551615
multi_lookahead prefetch line: 18446744073709551615
multi_lookahead prefetch line: 18446744073709551615
multi_lookahead prefetch line: 18446744073709551615
multi_lookahead prefetch line: 18446744073709551615
multi_lookahead prefetch line: 18446744073709551615
multi_lookahead prefetch line: 18446744073709551615
multi_lookahead prefetch line: 18446744073709551615
multi_lookahead prefetch line: 18446744073709551615
multi_lookahead prefetch line: 18446744073709551615
multi_lookahead prefetch line: 18446744073709551615
multi_lookahead prefetch line: 18446744073709551615
multi_lookahead prefetch line: 18446744073709551615
multi_lookahead prefetch line: 18446744073709551615
multi_lookahead prefetch line: 18446744073709551615
multi_lookahead prefetch line: 18446744073709551615
multi_lookahead prefetch line: 18446744073709551615
multi_lookahead prefetch line: 18446744073709551615
multi_lookahead prefetch line: 18446744073709551615
multi_lookahead prefetch line: 18446744073709551615
multi_lookahead prefetch line: 18446744073709551615
multi_lookahead prefetch line: 18446744073709551615
multi_lookahead prefetch line: 18446744073709551615
multi_lookahead prefetch line: 18446744073709551615
multi_lookahead prefetch line: 18446744073709551615
multi_lookahead prefetch line: 18446744073709551615
multi_lookahead prefetch line: 18446744073709551615
multi_lookahead prefetch line: 18446744073709551615
multi_lookahead prefetch line: 18446744073709551615
multi_lookahead prefetch line: 18446744073709551615
multi_lookahead prefetch line: 18446744073709551615
multi_lookahead prefetch line: 18446744073709551615
multi_lookahead prefetch line: 18446744073709551615
multi_lookahead prefetch line: 18446744073709551615
multi_lookahead prefetch line: 18446744073709551615
multi_lookahead prefetch line: 18446744073709551615
multi_lookahead prefetch line: 18446744073709551615
multi_lookahead prefetch line: 18446744073709551615
multi_lookahead prefetch line: 18446744073709551615
multi_lookahead prefetch line: 18446744073709551615
multi_lookahead prefetch line: 18446744073709551615
multi_lookahead prefetch line: 18446744073709551615
multi_lookahead prefetch line: 18446744073709551615
multi_lookahead prefetch line: 18446744073709551615
multi_lookahead prefetch line: 18446744073709551615
multi_lookahead prefetch line: 18446744073709551615
multi_lookahead prefetch line: 18446744073709551615
multi_lookahead prefetch line: 18446744073709551615
multi_lookahead prefetch line: 18446744073709551615
multi_lookahead prefetch line: 18446744073709551615
multi_lookahead prefetch line: 18446744073709551615
multi_lookahead prefetch line: 18446744073709551615
multi_lookahead prefetch line: 18446744073709551615
multi_lookahead prefetch line: 18446744073709551615
multi_lookahead prefetch line: 18446744073709551615
multi_lookahead prefetch line: 18446744073709551615
multi_lookahead prefetch line: 18446744073709551615
multi_lookahead prefetch line: 18446744073709551615
multi_lookahead prefetch line: 18446744073709551615
multi_lookahead prefetch line: 18446744073709551615
multi_lookahead prefetch line: 18446744073709551615
multi_lookahead prefetch line: 18446744073709551615
multi_lookahead prefetch line: 18446744073709551615
multi_lookahead prefetch line: 18446744073709551615
multi_lookahead prefetch line: 18446744073709551615
multi_lookahead prefetch line: 18446744073709551615
multi_lookahead prefetch line: 18446744073709551615
multi_lookahead prefetch line: 18446744073709551615
multi_lookahead prefetch line: 18446744073709551615
multi_lookahead prefetch line: 18446744073709551615
multi_lookahead prefetch line: 18446744073709551615
multi_lookahead prefetch line: 18446744073709551615
multi_lookahead prefetch line: 18446744073709551615
multi_lookahead prefetch line: 18446744073709551615
multi_lookahead prefetch line: 18446744073709551615
multi_lookahead prefetch line: 18446744073709551615
multi_lookahead prefetch line: 18446744073709551615
multi_lookahead prefetch line: 18446744073709551615
multi_lookahead prefetch line: 18446744073709551615
multi_lookahead prefetch line: 18446744073709551615
multi_lookahead prefetch line: 18446744073709551615
multi_lookahead prefetch line: 18446744073709551615
multi_lookahead prefetch line: 18446744073709551615
multi_lookahead prefetch line: 18446744073709551615
multi_lookahead prefetch line: 18446744073709551615
multi_lookahead prefetch line: 18446744073709551615
multi_lookahead prefetch line: 18446744073709551615
multi_lookahead prefetch line: 18446744073709551615
multi_lookahead prefetch line: 18446744073709551615
multi_lookahead prefetch line: 18446744073709551615
multi_lookahead prefetch line: 18446744073709551615
multi_lookahead prefetch line: 18446744073709551615
multi_lookahead prefetch line: 18446744073709551615
multi_lookahead prefetch line: 18446744073709551615
multi_lookahead prefetch line: 18446744073709551615
multi_lookahead prefetch line: 18446744073709551615
multi_lookahead prefetch line: 18446744073709551615
multi_lookahead prefetch line: 18446744073709551615
multi_lookahead prefetch line: 18446744073709551615
multi_lookahead prefetch line: 18446744073709551615
multi_lookahead prefetch line: 18446744073709551615
multi_lookahead prefetch line: 18446744073709551615
multi_lookahead prefetch line: 18446744073709551615
multi_lookahead prefetch line: 18446744073709551615
multi_lookahead prefetch line: 18446744073709551615
multi_lookahead prefetch line: 18446744073709551615
multi_lookahead prefetch line: 18446744073709551615
multi_lookahead prefetch line: 18446744073709551615
multi_lookahead prefetch line: 18446744073709551615
multi_lookahead prefetch line: 18446744073709551615
multi_lookahead prefetch line: 18446744073709551615
multi_lookahead prefetch line: 18446744073709551615
multi_lookahead prefetch line: 18446744073709551615
multi_lookahead prefetch line: 18446744073709551615
multi_lookahead prefetch line: 18446744073709551615
multi_lookahead prefetch line: 18446744073709551615
multi_lookahead prefetch line: 18446744073709551615
multi_lookahead prefetch line: 18446744073709551615
multi_lookahead prefetch line: 18446744073709551615
multi_lookahead prefetch line: 18446744073709551615
multi_lookahead prefetch line: 18446744073709551615
multi_lookahead prefetch line: 18446744073709551615
multi_lookahead prefetch line: 18446744073709551615
multi_lookahead prefetch line: 18446744073709551615
multi_lookahead prefetch line: 18446744073709551615
multi_lookahead prefetch line: 18446744073709551615
multi_lookahead prefetch line: 18446744073709551615
multi_lookahead prefetch line: 18446744073709551615
multi_lookahead prefetch line: 18446744073709551615
multi_lookahead prefetch line: 18446744073709551615
multi_lookahead prefetch line: 18446744073709551615
multi_lookahead prefetch line: 18446744073709551615
multi_lookahead prefetch line: 18446744073709551615
multi_lookahead prefetch line: 18446744073709551615
multi_lookahead prefetch line: 18446744073709551615
multi_lookahead prefetch line: 18446744073709551615
multi_lookahead prefetch line: 18446744073709551615
multi_lookahead prefetch line: 18446744073709551615
multi_lookahead prefetch line: 18446744073709551615
multi_lookahead prefetch line: 18446744073709551615
multi_lookahead prefetch line: 18446744073709551615
multi_lookahead prefetch line: 18446744073709551615
multi_lookahead prefetch line: 18446744073709551615
multi_lookahead prefetch line: 18446744073709551615
multi_lookahead prefetch line: 18446744073709551615
multi_lookahead prefetch line: 18446744073709551615
multi_lookahead prefetch line: 18446744073709551615
multi_lookahead prefetch line: 18446744073709551615
multi_lookahead prefetch line: 18446744073709551615
multi_lookahead prefetch line: 18446744073709551615
multi_lookahead prefetch line: 18446744073709551615
multi_lookahead prefetch line: 18446744073709551615
multi_lookahead prefetch line: 18446744073709551615
multi_lookahead prefetch line: 18446744073709551615
multi_lookahead prefetch line: 18446744073709551615
multi_lookahead prefetch line: 18446744073709551615
multi_lookahead prefetch line: 18446744073709551615
multi_lookahead prefetch line: 18446744073709551615
multi_lookahead prefetch line: 18446744073709551615
multi_lookahead prefetch line: 18446744073709551615
multi_lookahead prefetch line: 18446744073709551615
multi_lookahead prefetch line: 18446744073709551615
multi_lookahead prefetch line: 18446744073709551615
multi_lookahead prefetch line: 18446744073709551615
multi_lookahead prefetch line: 18446744073709551615
multi_lookahead prefetch line: 18446744073709551615
multi_lookahead prefetch line: 18446744073709551615
multi_lookahead prefetch line: 18446744073709551615
multi_lookahead prefetch line: 18446744073709551615
multi_lookahead prefetch line: 18446744073709551615
multi_lookahead prefetch line: 18446744073709551615
multi_lookahead prefetch line: 18446744073709551615
multi_lookahead prefetch line: 18446744073709551615
multi_lookahead prefetch line: 18446744073709551615
multi_lookahead prefetch line: 18446744073709551615
multi_lookahead prefetch line: 18446744073709551615
multi_lookahead prefetch line: 18446744073709551615
multi_lookahead prefetch line: 18446744073709551615
multi_lookahead prefetch line: 18446744073709551615
multi_lookahead prefetch line: 18446744073709551615
multi_lookahead prefetch line: 18446744073709551615
multi_lookahead prefetch line: 18446744073709551615
multi_lookahead prefetch line: 18446744073709551615
multi_lookahead prefetch line: 18446744073709551615
multi_lookahead prefetch line: 18446744073709551615
multi_lookahead prefetch line: 18446744073709551615
multi_lookahead prefetch line: 18446744073709551615
multi_lookahead prefetch line: 18446744073709551615
multi_lookahead prefetch line: 18446744073709551615
multi_lookahead prefetch line: 18446744073709551615
multi_lookahead prefetch line: 18446744073709551615
multi_lookahead prefetch line: 18446744073709551615
multi_lookahead prefetch line: 18446744073709551615
multi_lookahead prefetch line: 18446744073709551615
multi_lookahead prefetch line: 18446744073709551615
multi_lookahead prefetch line: 18446744073709551615
multi_lookahead prefetch line: 18446744073709551615
multi_lookahead prefetch line: 18446744073709551615
multi_lookahead prefetch line: 18446744073709551615
multi_lookahead prefetch line: 18446744073709551615
multi_lookahead prefetch line: 18446744073709551615
multi_lookahead prefetch line: 18446744073709551615
multi_lookahead prefetch line: 18446744073709551615
multi_lookahead prefetch line: 18446744073709551615
multi_lookahead prefetch line: 18446744073709551615
multi_lookahead prefetch line: 18446744073709551615
multi_lookahead prefetch line: 18446744073709551615
multi_lookahead prefetch line: 18446744073709551615
multi_lookahead prefetch line: 18446744073709551615
multi_lookahead prefetch line: 18446744073709551615
multi_lookahead prefetch line: 18446744073709551615
multi_lookahead prefetch line: 18446744073709551615
multi_lookahead prefetch line: 18446744073709551615
multi_lookahead prefetch line: 18446744073709551615
multi_lookahead prefetch line: 18446744073709551615
multi_lookahead prefetch line: 18446744073709551615
multi_lookahead prefetch line: 18446744073709551615
multi_lookahead prefetch line: 18446744073709551615
multi_lookahead prefetch line: 18446744073709551615
multi_lookahead prefetch line: 18446744073709551615
multi_lookahead prefetch line: 18446744073709551615
multi_lookahead prefetch line: 18446744073709551615
multi_lookahead prefetch line: 18446744073709551615
multi_lookahead prefetch line: 18446744073709551615
multi_lookahead prefetch line: 18446744073709551615
multi_lookahead prefetch line: 18446744073709551615
multi_lookahead prefetch line: 18446744073709551615
multi_lookahead prefetch line: 18446744073709551615
multi_lookahead prefetch line: 18446744073709551615
multi_lookahead prefetch line: 18446744073709551615
multi_lookahead prefetch line: 18446744073709551615
multi_lookahead prefetch line: 18446744073709551615
multi_lookahead prefetch line: 18446744073709551615
multi_lookahead prefetch line: 18446744073709551615
multi_lookahead prefetch line: 18446744073709551615
multi_lookahead prefetch line: 18446744073709551615
multi_lookahead prefetch line: 18446744073709551615
multi_lookahead prefetch line: 18446744073709551615
multi_lookahead prefetch line: 18446744073709551615
multi_lookahead prefetch line: 18446744073709551615
multi_lookahead prefetch line: 18446744073709551615
multi_lookahead prefetch line: 18446744073709551615
multi_lookahead prefetch line: 18446744073709551615
multi_lookahead prefetch line: 18446744073709551615
multi_lookahead prefetch line: 18446744073709551615
multi_lookahead prefetch line: 18446744073709551615
multi_lookahead prefetch line: 18446744073709551615
multi_lookahead prefetch line: 18446744073709551615
multi_lookahead prefetch line: 18446744073709551615
multi_lookahead prefetch line: 18446744073709551615
multi_lookahead prefetch line: 18446744073709551615
multi_lookahead prefetch line: 18446744073709551615
multi_lookahead prefetch line: 18446744073709551615
multi_lookahead prefetch line: 18446744073709551615
multi_lookahead prefetch line: 18446744073709551615
multi_lookahead prefetch line: 18446744073709551615
multi_lookahead prefetch line: 18446744073709551615
multi_lookahead prefetch line: 18446744073709551615
multi_lookahead prefetch line: 18446744073709551615
multi_lookahead prefetch line: 18446744073709551615
multi_lookahead prefetch line: 18446744073709551615
multi_lookahead prefetch line: 18446744073709551615
multi_lookahead prefetch line: 18446744073709551615
multi_lookahead prefetch line: 18446744073709551615
multi_lookahead prefetch line: 18446744073709551615
multi_lookahead prefetch line: 18446744073709551615
multi_lookahead prefetch line: 18446744073709551615
multi_lookahead prefetch line: 18446744073709551615
multi_lookahead prefetch line: 18446744073709551615
multi_lookahead prefetch line: 18446744073709551615
multi_lookahead prefetch line: 18446744073709551615
multi_lookahead prefetch line: 18446744073709551615
multi_lookahead prefetch line: 18446744073709551615
multi_lookahead prefetch line: 18446744073709551615
multi_lookahead prefetch line: 18446744073709551615
multi_lookahead prefetch line: 18446744073709551615
multi_lookahead prefetch line: 18446744073709551615
multi_lookahead prefetch line: 18446744073709551615
multi_lookahead prefetch line: 18446744073709551615
multi_lookahead prefetch line: 18446744073709551615
multi_lookahead prefetch line: 18446744073709551615
multi_lookahead prefetch line: 18446744073709551615
multi_lookahead prefetch line: 18446744073709551615
multi_lookahead prefetch line: 18446744073709551615
multi_lookahead prefetch line: 18446744073709551615
multi_lookahead prefetch line: 18446744073709551615
multi_lookahead prefetch line: 18446744073709551615
multi_lookahead prefetch line: 18446744073709551615
multi_lookahead prefetch line: 18446744073709551615
multi_lookahead prefetch line: 18446744073709551615
multi_lookahead prefetch line: 18446744073709551615
multi_lookahead prefetch line: 18446744073709551615
multi_lookahead prefetch line: 18446744073709551615
multi_lookahead prefetch line: 18446744073709551615
multi_lookahead prefetch line: 18446744073709551615
multi_lookahead prefetch line: 18446744073709551615
multi_lookahead prefetch line: 18446744073709551615
multi_lookahead prefetch line: 18446744073709551615
multi_lookahead prefetch line: 18446744073709551615
multi_lookahead prefetch line: 18446744073709551615
multi_lookahead prefetch line: 18446744073709551615
multi_lookahead prefetch line: 18446744073709551615
multi_lookahead prefetch line: 18446744073709551615
multi_lookahead prefetch line: 18446744073709551615
multi_lookahead prefetch line: 18446744073709551615
multi_lookahead prefetch line: 18446744073709551615
multi_lookahead prefetch line: 18446744073709551615
multi_lookahead prefetch line: 18446744073709551615
multi_lookahead prefetch line: 18446744073709551615
multi_lookahead prefetch line: 18446744073709551615
multi_lookahead prefetch line: 18446744073709551615
multi_lookahead prefetch line: 18446744073709551615
multi_lookahead prefetch line: 18446744073709551615
multi_lookahead prefetch line: 18446744073709551615
multi_lookahead prefetch line: 18446744073709551615
multi_lookahead prefetch line: 18446744073709551615
multi_lookahead prefetch line: 18446744073709551615
multi_lookahead prefetch line: 18446744073709551615
multi_lookahead prefetch line: 18446744073709551615
multi_lookahead prefetch line: 18446744073709551615
multi_lookahead prefetch line: 18446744073709551615
multi_lookahead prefetch line: 18446744073709551615
multi_lookahead prefetch line: 18446744073709551615
multi_lookahead prefetch line: 18446744073709551615
multi_lookahead prefetch line: 18446744073709551615
multi_lookahead prefetch line: 18446744073709551615
multi_lookahead prefetch line: 18446744073709551615
multi_lookahead prefetch line: 18446744073709551615
multi_lookahead prefetch line: 18446744073709551615
multi_lookahead prefetch line: 18446744073709551615
multi_lookahead prefetch line: 18446744073709551615
multi_lookahead prefetch line: 18446744073709551615
multi_lookahead prefetch line: 18446744073709551615
multi_lookahead prefetch line: 18446744073709551615
multi_lookahead prefetch line: 18446744073709551615
multi_lookahead prefetch line: 18446744073709551615
multi_lookahead prefetch line: 18446744073709551615
multi_lookahead prefetch line: 18446744073709551615
multi_lookahead prefetch line: 18446744073709551615
multi_lookahead prefetch line: 18446744073709551615
multi_lookahead prefetch line: 18446744073709551615
multi_lookahead prefetch line: 18446744073709551615
multi_lookahead prefetch line: 18446744073709551615
multi_lookahead prefetch line: 18446744073709551615
multi_lookahead prefetch line: 18446744073709551615
multi_lookahead prefetch line: 18446744073709551615
multi_lookahead prefetch line: 18446744073709551615
multi_lookahead prefetch line: 18446744073709551615
multi_lookahead prefetch line: 18446744073709551615
multi_lookahead prefetch line: 18446744073709551615
multi_lookahead prefetch line: 18446744073709551615
multi_lookahead prefetch line: 18446744073709551615
multi_lookahead prefetch line: 18446744073709551615
multi_lookahead prefetch line: 18446744073709551615
multi_lookahead prefetch line: 18446744073709551615
multi_lookahead prefetch line: 18446744073709551615
multi_lookahead prefetch line: 18446744073709551615
multi_lookahead prefetch line: 18446744073709551615
multi_lookahead prefetch line: 18446744073709551615
multi_lookahead prefetch line: 18446744073709551615
multi_lookahead prefetch line: 18446744073709551615
multi_lookahead prefetch line: 18446744073709551615
multi_lookahead prefetch line: 18446744073709551615
multi_lookahead prefetch line: 18446744073709551615
multi_lookahead prefetch line: 18446744073709551615
multi_lookahead prefetch line: 18446744073709551615
multi_lookahead prefetch line: 18446744073709551615
multi_lookahead prefetch line: 18446744073709551615
multi_lookahead prefetch line: 18446744073709551615
multi_lookahead prefetch line: 18446744073709551615
multi_lookahead prefetch line: 18446744073709551615
multi_lookahead prefetch line: 18446744073709551615
multi_lookahead prefetch line: 18446744073709551615
multi_lookahead prefetch line: 18446744073709551615
multi_lookahead prefetch line: 18446744073709551615
multi_lookahead prefetch line: 18446744073709551615
multi_lookahead prefetch line: 18446744073709551615
multi_lookahead prefetch line: 18446744073709551615
multi_lookahead prefetch line: 18446744073709551615
multi_lookahead prefetch line: 18446744073709551615
multi_lookahead prefetch line: 18446744073709551615
multi_lookahead prefetch line: 18446744073709551615
multi_lookahead prefetch line: 18446744073709551615
multi_lookahead prefetch line: 18446744073709551615
multi_lookahead prefetch line: 18446744073709551615
multi_lookahead prefetch line: 18446744073709551615
multi_lookahead prefetch line: 18446744073709551615
multi_lookahead prefetch line: 18446744073709551615
multi_lookahead prefetch line: 18446744073709551615
multi_lookahead prefetch line: 18446744073709551615
multi_lookahead prefetch line: 18446744073709551615
multi_lookahead prefetch line: 18446744073709551615
multi_lookahead prefetch line: 18446744073709551615
multi_lookahead prefetch line: 18446744073709551615
multi_lookahead prefetch line: 18446744073709551615
multi_lookahead prefetch line: 18446744073709551615
multi_lookahead prefetch line: 18446744073709551615
multi_lookahead prefetch line: 18446744073709551615
multi_lookahead prefetch line: 18446744073709551615
multi_lookahead prefetch line: 18446744073709551615
multi_lookahead prefetch line: 18446744073709551615
multi_lookahead prefetch line: 18446744073709551615
multi_lookahead prefetch line: 18446744073709551615
multi_lookahead prefetch line: 18446744073709551615
multi_lookahead prefetch line: 18446744073709551615
multi_lookahead prefetch line: 18446744073709551615
multi_lookahead prefetch line: 18446744073709551615
multi_lookahead prefetch line: 18446744073709551615
multi_lookahead prefetch line: 18446744073709551615
multi_lookahead prefetch line: 18446744073709551615
multi_lookahead prefetch line: 18446744073709551615
multi_lookahead prefetch line: 18446744073709551615
multi_lookahead prefetch line: 18446744073709551615
multi_lookahead prefetch line: 18446744073709551615
multi_lookahead prefetch line: 18446744073709551615
multi_lookahead prefetch line: 18446744073709551615
multi_lookahead prefetch line: 18446744073709551615
multi_lookahead prefetch line: 18446744073709551615
multi_lookahead prefetch line: 18446744073709551615
multi_lookahead prefetch line: 18446744073709551615
multi_lookahead prefetch line: 18446744073709551615
multi_lookahead prefetch line: 18446744073709551615
multi_lookahead prefetch line: 18446744073709551615
multi_lookahead prefetch line: 18446744073709551615
multi_lookahead prefetch line: 18446744073709551615
multi_lookahead prefetch line: 18446744073709551615
multi_lookahead prefetch line: 18446744073709551615
multi_lookahead prefetch line: 18446744073709551615
multi_lookahead prefetch line: 18446744073709551615
multi_lookahead prefetch line: 18446744073709551615
multi_lookahead prefetch line: 18446744073709551615
multi_lookahead prefetch line: 18446744073709551615
multi_lookahead prefetch line: 18446744073709551615
multi_lookahead prefetch line: 18446744073709551615
multi_lookahead prefetch line: 18446744073709551615
multi_lookahead prefetch line: 18446744073709551615
multi_lookahead prefetch line: 18446744073709551615
multi_lookahead prefetch line: 18446744073709551615
multi_lookahead prefetch line: 18446744073709551615
multi_lookahead prefetch line: 18446744073709551615
multi_lookahead prefetch line: 18446744073709551615
multi_lookahead prefetch line: 18446744073709551615
multi_lookahead prefetch line: 18446744073709551615
multi_lookahead prefetch line: 18446744073709551615
multi_lookahead prefetch line: 18446744073709551615
multi_lookahead prefetch line: 18446744073709551615
multi_lookahead prefetch line: 18446744073709551615
multi_lookahead prefetch line: 18446744073709551615
multi_lookahead prefetch line: 18446744073709551615
multi_lookahead prefetch line: 18446744073709551615
multi_lookahead prefetch line: 18446744073709551615
multi_lookahead prefetch line: 18446744073709551615
multi_lookahead prefetch line: 18446744073709551615
multi_lookahead prefetch line: 18446744073709551615
multi_lookahead prefetch line: 18446744073709551615
multi_lookahead prefetch line: 18446744073709551615
multi_lookahead prefetch line: 18446744073709551615
multi_lookahead prefetch line: 18446744073709551615
multi_lookahead prefetch line: 18446744073709551615
multi_lookahead prefetch line: 18446744073709551615
multi_lookahead prefetch line: 18446744073709551615
multi_lookahead prefetch line: 18446744073709551615
multi_lookahead prefetch line: 18446744073709551615
multi_lookahead prefetch line: 18446744073709551615
multi_lookahead prefetch line: 18446744073709551615
multi_lookahead prefetch line: 18446744073709551615
multi_lookahead prefetch line: 18446744073709551615
multi_lookahead prefetch line: 18446744073709551615
multi_lookahead prefetch line: 18446744073709551615
multi_lookahead prefetch line: 18446744073709551615
multi_lookahead prefetch line: 18446744073709551615
multi_lookahead prefetch line: 18446744073709551615
multi_lookahead prefetch line: 18446744073709551615
multi_lookahead prefetch line: 18446744073709551615
multi_lookahead prefetch line: 18446744073709551615
multi_lookahead prefetch line: 18446744073709551615
multi_lookahead prefetch line: 18446744073709551615
multi_lookahead prefetch line: 18446744073709551615
multi_lookahead prefetch line: 18446744073709551615
multi_lookahead prefetch line: 18446744073709551615
multi_lookahead prefetch line: 18446744073709551615
multi_lookahead prefetch line: 18446744073709551615
multi_lookahead prefetch line: 18446744073709551615
multi_lookahead prefetch line: 18446744073709551615
multi_lookahead prefetch line: 18446744073709551615
multi_lookahead prefetch line: 18446744073709551615
multi_lookahead prefetch line: 18446744073709551615
multi_lookahead prefetch line: 18446744073709551615
multi_lookahead prefetch line: 18446744073709551615
multi_lookahead prefetch line: 18446744073709551615
multi_lookahead prefetch line: 18446744073709551615
multi_lookahead prefetch line: 18446744073709551615
multi_lookahead prefetch line: 18446744073709551615
multi_lookahead prefetch line: 18446744073709551615
multi_lookahead prefetch line: 18446744073709551615
multi_lookahead prefetch line: 18446744073709551615
multi_lookahead prefetch line: 18446744073709551615
multi_lookahead prefetch line: 18446744073709551615
multi_lookahead prefetch line: 18446744073709551615
multi_lookahead prefetch line: 18446744073709551615
multi_lookahead prefetch line: 18446744073709551615
multi_lookahead prefetch line: 18446744073709551615
multi_lookahead prefetch line: 18446744073709551615
multi_lookahead prefetch line: 18446744073709551615
multi_lookahead prefetch line: 18446744073709551615
multi_lookahead prefetch line: 18446744073709551615
multi_lookahead prefetch line: 18446744073709551615
multi_lookahead prefetch line: 18446744073709551615
multi_lookahead prefetch line: 18446744073709551615
multi_lookahead prefetch line: 18446744073709551615
multi_lookahead prefetch line: 18446744073709551615
multi_lookahead prefetch line: 18446744073709551615
multi_lookahead prefetch line: 18446744073709551615
multi_lookahead prefetch line: 18446744073709551615
multi_lookahead prefetch line: 18446744073709551615
multi_lookahead prefetch line: 18446744073709551615
multi_lookahead prefetch line: 18446744073709551615
multi_lookahead prefetch line: 18446744073709551615
multi_lookahead prefetch line: 18446744073709551615
multi_lookahead prefetch line: 18446744073709551615
multi_lookahead prefetch line: 18446744073709551615
multi_lookahead prefetch line: 18446744073709551615
multi_lookahead prefetch line: 18446744073709551615
multi_lookahead prefetch line: 18446744073709551615
multi_lookahead prefetch line: 18446744073709551615
multi_lookahead prefetch line: 18446744073709551615
multi_lookahead prefetch line: 18446744073709551615
multi_lookahead prefetch line: 18446744073709551615
multi_lookahead prefetch line: 18446744073709551615
multi_lookahead prefetch line: 18446744073709551615
multi_lookahead prefetch line: 18446744073709551615
multi_lookahead prefetch line: 18446744073709551615
multi_lookahead prefetch line: 18446744073709551615
multi_lookahead prefetch line: 18446744073709551615
multi_lookahead prefetch line: 18446744073709551615
multi_lookahead prefetch line: 18446744073709551615
multi_lookahead prefetch line: 18446744073709551615
multi_lookahead prefetch line: 18446744073709551615
multi_lookahead prefetch line: 18446744073709551615
multi_lookahead prefetch line: 18446744073709551615
multi_lookahead prefetch line: 18446744073709551615
multi_lookahead prefetch line: 18446744073709551615
multi_lookahead prefetch line: 18446744073709551615
multi_lookahead prefetch line: 18446744073709551615
multi_lookahead prefetch line: 18446744073709551615
multi_lookahead prefetch line: 18446744073709551615
multi_lookahead prefetch line: 18446744073709551615
multi_lookahead prefetch line: 18446744073709551615
multi_lookahead prefetch line: 18446744073709551615
multi_lookahead prefetch line: 18446744073709551615
multi_lookahead prefetch line: 18446744073709551615
multi_lookahead prefetch line: 18446744073709551615
multi_lookahead prefetch line: 18446744073709551615
multi_lookahead prefetch line: 18446744073709551615
multi_lookahead prefetch line: 18446744073709551615
multi_lookahead prefetch line: 18446744073709551615
multi_lookahead prefetch line: 18446744073709551615
multi_lookahead prefetch line: 18446744073709551615
multi_lookahead prefetch line: 18446744073709551615
multi_lookahead prefetch line: 18446744073709551615
multi_lookahead prefetch line: 18446744073709551615
multi_lookahead prefetch line: 18446744073709551615
multi_lookahead prefetch line: 18446744073709551615
multi_lookahead prefetch line: 18446744073709551615
multi_lookahead prefetch line: 18446744073709551615
multi_lookahead prefetch line: 18446744073709551615
multi_lookahead prefetch line: 18446744073709551615
multi_lookahead prefetch line: 18446744073709551615
multi_lookahead prefetch line: 18446744073709551615
multi_lookahead prefetch line: 18446744073709551615
multi_lookahead prefetch line: 18446744073709551615
multi_lookahead prefetch line: 18446744073709551615
multi_lookahead prefetch line: 18446744073709551615
multi_lookahead prefetch line: 18446744073709551615
multi_lookahead prefetch line: 18446744073709551615
multi_lookahead prefetch line: 18446744073709551615
multi_lookahead prefetch line: 18446744073709551615
multi_lookahead prefetch line: 18446744073709551615
multi_lookahead prefetch line: 18446744073709551615
multi_lookahead prefetch line: 18446744073709551615
multi_lookahead prefetch line: 18446744073709551615
multi_lookahead prefetch line: 18446744073709551615
multi_lookahead prefetch line: 18446744073709551615
multi_lookahead prefetch line: 18446744073709551615
multi_lookahead prefetch line: 18446744073709551615
multi_lookahead prefetch line: 18446744073709551615
multi_lookahead prefetch line: 18446744073709551615
multi_lookahead prefetch line: 18446744073709551615
multi_lookahead prefetch line: 18446744073709551615
multi_lookahead prefetch line: 18446744073709551615
multi_lookahead prefetch line: 18446744073709551615
multi_lookahead prefetch line: 18446744073709551615
multi_lookahead prefetch line: 18446744073709551615
multi_lookahead prefetch line: 18446744073709551615
multi_lookahead prefetch line: 18446744073709551615
multi_lookahead prefetch line: 18446744073709551615
multi_lookahead prefetch line: 18446744073709551615
multi_lookahead prefetch line: 18446744073709551615
multi_lookahead prefetch line: 18446744073709551615
multi_lookahead prefetch line: 18446744073709551615
multi_lookahead prefetch line: 18446744073709551615
multi_lookahead prefetch line: 18446744073709551615
multi_lookahead prefetch line: 18446744073709551615
multi_lookahead prefetch line: 18446744073709551615
multi_lookahead prefetch line: 18446744073709551615
multi_lookahead prefetch line: 18446744073709551615
multi_lookahead prefetch line: 18446744073709551615
multi_lookahead prefetch line: 18446744073709551615
multi_lookahead prefetch line: 18446744073709551615
multi_lookahead prefetch line: 18446744073709551615
multi_lookahead prefetch line: 18446744073709551615
multi_lookahead prefetch line: 18446744073709551615
multi_lookahead prefetch line: 18446744073709551615
multi_lookahead prefetch line: 18446744073709551615
multi_lookahead prefetch line: 18446744073709551615
multi_lookahead prefetch line: 18446744073709551615
multi_lookahead prefetch line: 18446744073709551615
multi_lookahead prefetch line: 18446744073709551615
multi_lookahead prefetch line: 18446744073709551615
multi_lookahead prefetch line: 18446744073709551615
multi_lookahead prefetch line: 18446744073709551615
multi_lookahead prefetch line: 18446744073709551615
multi_lookahead prefetch line: 18446744073709551615
multi_lookahead prefetch line: 18446744073709551615
multi_lookahead prefetch line: 18446744073709551615
multi_lookahead prefetch line: 18446744073709551615
multi_lookahead prefetch line: 18446744073709551615
multi_lookahead prefetch line: 18446744073709551615
multi_lookahead prefetch line: 18446744073709551615
multi_lookahead prefetch line: 18446744073709551615
multi_lookahead prefetch line: 18446744073709551615
multi_lookahead prefetch line: 18446744073709551615
multi_lookahead prefetch line: 18446744073709551615
multi_lookahead prefetch line: 18446744073709551615
multi_lookahead prefetch line: 18446744073709551615
multi_lookahead prefetch line: 18446744073709551615
multi_lookahead prefetch line: 18446744073709551615
multi_lookahead prefetch line: 18446744073709551615
multi_lookahead prefetch line: 18446744073709551615
multi_lookahead prefetch line: 18446744073709551615
multi_lookahead prefetch line: 18446744073709551615
multi_lookahead prefetch line: 18446744073709551615
multi_lookahead prefetch line: 18446744073709551615
multi_lookahead prefetch line: 18446744073709551615
multi_lookahead prefetch line: 18446744073709551615
multi_lookahead prefetch line: 18446744073709551615
multi_lookahead prefetch line: 18446744073709551615
multi_lookahead prefetch line: 18446744073709551615
multi_lookahead prefetch line: 18446744073709551615
multi_lookahead prefetch line: 18446744073709551615
multi_lookahead prefetch line: 18446744073709551615
multi_lookahead prefetch line: 18446744073709551615
multi_lookahead prefetch line: 18446744073709551615
multi_lookahead prefetch line: 18446744073709551615
multi_lookahead prefetch line: 18446744073709551615
multi_lookahead prefetch line: 18446744073709551615
multi_lookahead prefetch line: 18446744073709551615
multi_lookahead prefetch line: 18446744073709551615
multi_lookahead prefetch line: 18446744073709551615
multi_lookahead prefetch line: 18446744073709551615
multi_lookahead prefetch line: 18446744073709551615
multi_lookahead prefetch line: 18446744073709551615
multi_lookahead prefetch line: 18446744073709551615
multi_lookahead prefetch line: 18446744073709551615
multi_lookahead prefetch line: 18446744073709551615
multi_lookahead prefetch line: 18446744073709551615
multi_lookahead prefetch line: 18446744073709551615
multi_lookahead prefetch line: 18446744073709551615
multi_lookahead prefetch line: 18446744073709551615
multi_lookahead prefetch line: 18446744073709551615
multi_lookahead prefetch line: 18446744073709551615
multi_lookahead prefetch line: 18446744073709551615
multi_lookahead prefetch line: 18446744073709551615
multi_lookahead prefetch line: 18446744073709551615
multi_lookahead prefetch line: 18446744073709551615
multi_lookahead prefetch line: 18446744073709551615
multi_lookahead prefetch line: 18446744073709551615
multi_lookahead prefetch line: 18446744073709551615
multi_lookahead prefetch line: 18446744073709551615
multi_lookahead prefetch line: 18446744073709551615
multi_lookahead prefetch line: 18446744073709551615
multi_lookahead prefetch line: 18446744073709551615
multi_lookahead prefetch line: 18446744073709551615
multi_lookahead prefetch line: 18446744073709551615
multi_lookahead prefetch line: 18446744073709551615
multi_lookahead prefetch line: 18446744073709551615
multi_lookahead prefetch line: 18446744073709551615
multi_lookahead prefetch line: 18446744073709551615
multi_lookahead prefetch line: 18446744073709551615
multi_lookahead prefetch line: 18446744073709551615
multi_lookahead prefetch line: 18446744073709551615
multi_lookahead prefetch line: 18446744073709551615
multi_lookahead prefetch line: 18446744073709551615
multi_lookahead prefetch line: 18446744073709551615
multi_lookahead prefetch line: 18446744073709551615
multi_lookahead prefetch line: 18446744073709551615
multi_lookahead prefetch line: 18446744073709551615
multi_lookahead prefetch line: 18446744073709551615
multi_lookahead prefetch line: 18446744073709551615
multi_lookahead prefetch line: 18446744073709551615
multi_lookahead prefetch line: 18446744073709551615
multi_lookahead prefetch line: 18446744073709551615
multi_lookahead prefetch line: 18446744073709551615
multi_lookahead prefetch line: 18446744073709551615
multi_lookahead prefetch line: 18446744073709551615
multi_lookahead prefetch line: 18446744073709551615
multi_lookahead prefetch line: 18446744073709551615
multi_lookahead prefetch line: 18446744073709551615
multi_lookahead prefetch line: 18446744073709551615
multi_lookahead prefetch line: 18446744073709551615
multi_lookahead prefetch line: 18446744073709551615
multi_lookahead prefetch line: 18446744073709551615
multi_lookahead prefetch line: 18446744073709551615
multi_lookahead prefetch line: 18446744073709551615
multi_lookahead prefetch line: 18446744073709551615
multi_lookahead prefetch line: 18446744073709551615
multi_lookahead prefetch line: 18446744073709551615
multi_lookahead prefetch line: 18446744073709551615
multi_lookahead prefetch line: 18446744073709551615
multi_lookahead prefetch line: 18446744073709551615
multi_lookahead prefetch line: 18446744073709551615
multi_lookahead prefetch line: 18446744073709551615
multi_lookahead prefetch line: 18446744073709551615
multi_lookahead prefetch line: 18446744073709551615
multi_lookahead prefetch line: 18446744073709551615
multi_lookahead prefetch line: 18446744073709551615
multi_lookahead prefetch line: 18446744073709551615
multi_lookahead prefetch line: 18446744073709551615
multi_lookahead prefetch line: 18446744073709551615
multi_lookahead prefetch line: 18446744073709551615
multi_lookahead prefetch line: 18446744073709551615
multi_lookahead prefetch line: 18446744073709551615
multi_lookahead prefetch line: 18446744073709551615
multi_lookahead prefetch line: 18446744073709551615
multi_lookahead prefetch line: 18446744073709551615
multi_lookahead prefetch line: 18446744073709551615
multi_lookahead prefetch line: 18446744073709551615
multi_lookahead prefetch line: 18446744073709551615
multi_lookahead prefetch line: 18446744073709551615
multi_lookahead prefetch line: 18446744073709551615
multi_lookahead prefetch line: 18446744073709551615
multi_lookahead prefetch line: 18446744073709551615
multi_lookahead prefetch line: 18446744073709551615
multi_lookahead prefetch line: 18446744073709551615
multi_lookahead prefetch line: 18446744073709551615
multi_lookahead prefetch line: 18446744073709551615
multi_lookahead prefetch line: 18446744073709551615
multi_lookahead prefetch line: 18446744073709551615
multi_lookahead prefetch line: 18446744073709551615
multi_lookahead prefetch line: 18446744073709551615
multi_lookahead prefetch line: 18446744073709551615
multi_lookahead prefetch line: 18446744073709551615
multi_lookahead prefetch line: 18446744073709551615
multi_lookahead prefetch line: 18446744073709551615
multi_lookahead prefetch line: 18446744073709551615
multi_lookahead prefetch line: 18446744073709551615
multi_lookahead prefetch line: 18446744073709551615
multi_lookahead prefetch line: 18446744073709551615
multi_lookahead prefetch line: 18446744073709551615
multi_lookahead prefetch line: 18446744073709551615
multi_lookahead prefetch line: 18446744073709551615
multi_lookahead prefetch line: 18446744073709551615
multi_lookahead prefetch line: 18446744073709551615
multi_lookahead prefetch line: 18446744073709551615
multi_lookahead prefetch line: 18446744073709551615
multi_lookahead prefetch line: 18446744073709551615
multi_lookahead prefetch line: 18446744073709551615
multi_lookahead prefetch line: 18446744073709551615
multi_lookahead prefetch line: 18446744073709551615
multi_lookahead prefetch line: 18446744073709551615
multi_lookahead prefetch line: 18446744073709551615
multi_lookahead prefetch line: 18446744073709551615
multi_lookahead prefetch line: 18446744073709551615
multi_lookahead prefetch line: 18446744073709551615
multi_lookahead prefetch line: 18446744073709551615
multi_lookahead prefetch line: 18446744073709551615
multi_lookahead prefetch line: 18446744073709551615
multi_lookahead prefetch line: 18446744073709551615
multi_lookahead prefetch line: 18446744073709551615
multi_lookahead prefetch line: 18446744073709551615
multi_lookahead prefetch line: 18446744073709551615
multi_lookahead prefetch line: 18446744073709551615
multi_lookahead prefetch line: 18446744073709551615
multi_lookahead prefetch line: 18446744073709551615
multi_lookahead prefetch line: 18446744073709551615
multi_lookahead prefetch line: 18446744073709551615
multi_lookahead prefetch line: 18446744073709551615
multi_lookahead prefetch line: 18446744073709551615
multi_lookahead prefetch line: 18446744073709551615
multi_lookahead prefetch line: 18446744073709551615
multi_lookahead prefetch line: 18446744073709551615
multi_lookahead prefetch line: 18446744073709551615
multi_lookahead prefetch line: 18446744073709551615
multi_lookahead prefetch line: 18446744073709551615
multi_lookahead prefetch line: 18446744073709551615
multi_lookahead prefetch line: 18446744073709551615
multi_lookahead prefetch line: 18446744073709551615
multi_lookahead prefetch line: 18446744073709551615
multi_lookahead prefetch line: 18446744073709551615
multi_lookahead prefetch line: 18446744073709551615
multi_lookahead prefetch line: 18446744073709551615
multi_lookahead prefetch line: 18446744073709551615
multi_lookahead prefetch line: 18446744073709551615
multi_lookahead prefetch line: 18446744073709551615
multi_lookahead prefetch line: 18446744073709551615
multi_lookahead prefetch line: 18446744073709551615
multi_lookahead prefetch line: 18446744073709551615
multi_lookahead prefetch line: 18446744073709551615
multi_lookahead prefetch line: 18446744073709551615
multi_lookahead prefetch line: 18446744073709551615
multi_lookahead prefetch line: 18446744073709551615
multi_lookahead prefetch line: 18446744073709551615
multi_lookahead prefetch line: 18446744073709551615
multi_lookahead prefetch line: 18446744073709551615
multi_lookahead prefetch line: 18446744073709551615
multi_lookahead prefetch line: 18446744073709551615
multi_lookahead prefetch line: 18446744073709551615
multi_lookahead prefetch line: 18446744073709551615
multi_lookahead prefetch line: 18446744073709551615
multi_lookahead prefetch line: 18446744073709551615
multi_lookahead prefetch line: 18446744073709551615
multi_lookahead prefetch line: 18446744073709551615
multi_lookahead prefetch line: 18446744073709551615
multi_lookahead prefetch line: 18446744073709551615
multi_lookahead prefetch line: 18446744073709551615
multi_lookahead prefetch line: 18446744073709551615
multi_lookahead prefetch line: 18446744073709551615
multi_lookahead prefetch line: 18446744073709551615
multi_lookahead prefetch line: 18446744073709551615
multi_lookahead prefetch line: 18446744073709551615
multi_lookahead prefetch line: 18446744073709551615
multi_lookahead prefetch line: 18446744073709551615
multi_lookahead prefetch line: 18446744073709551615
multi_lookahead prefetch line: 18446744073709551615
multi_lookahead prefetch line: 18446744073709551615
multi_lookahead prefetch line: 18446744073709551615
multi_lookahead prefetch line: 18446744073709551615
multi_lookahead prefetch line: 18446744073709551615
multi_lookahead prefetch line: 18446744073709551615
multi_lookahead prefetch line: 18446744073709551615
multi_lookahead prefetch line: 18446744073709551615
multi_lookahead prefetch line: 18446744073709551615
multi_lookahead prefetch line: 18446744073709551615
multi_lookahead prefetch line: 18446744073709551615
multi_lookahead prefetch line: 18446744073709551615
multi_lookahead prefetch line: 18446744073709551615
multi_lookahead prefetch line: 18446744073709551615
multi_lookahead prefetch line: 18446744073709551615
multi_lookahead prefetch line: 18446744073709551615
multi_lookahead prefetch line: 18446744073709551615
multi_lookahead prefetch line: 18446744073709551615
multi_lookahead prefetch line: 18446744073709551615
multi_lookahead prefetch line: 18446744073709551615
multi_lookahead prefetch line: 18446744073709551615
multi_lookahead prefetch line: 18446744073709551615
multi_lookahead prefetch line: 18446744073709551615
multi_lookahead prefetch line: 18446744073709551615
multi_lookahead prefetch line: 18446744073709551615
multi_lookahead prefetch line: 18446744073709551615
multi_lookahead prefetch line: 18446744073709551615
multi_lookahead prefetch line: 18446744073709551615
multi_lookahead prefetch line: 18446744073709551615
multi_lookahead prefetch line: 18446744073709551615
multi_lookahead prefetch line: 18446744073709551615
multi_lookahead prefetch line: 18446744073709551615
multi_lookahead prefetch line: 18446744073709551615
multi_lookahead prefetch line: 18446744073709551615
multi_lookahead prefetch line: 18446744073709551615
multi_lookahead prefetch line: 18446744073709551615
multi_lookahead prefetch line: 18446744073709551615
multi_lookahead prefetch line: 18446744073709551615
multi_lookahead prefetch line: 18446744073709551615
multi_lookahead prefetch line: 18446744073709551615
multi_lookahead prefetch line: 18446744073709551615
multi_lookahead prefetch line: 18446744073709551615
multi_lookahead prefetch line: 18446744073709551615
multi_lookahead prefetch line: 18446744073709551615
multi_lookahead prefetch line: 18446744073709551615
multi_lookahead prefetch line: 18446744073709551615
multi_lookahead prefetch line: 18446744073709551615
multi_lookahead prefetch line: 18446744073709551615
multi_lookahead prefetch line: 18446744073709551615
multi_lookahead prefetch line: 18446744073709551615
multi_lookahead prefetch line: 18446744073709551615
multi_lookahead prefetch line: 18446744073709551615
multi_lookahead prefetch line: 18446744073709551615
multi_lookahead prefetch line: 18446744073709551615
multi_lookahead prefetch line: 18446744073709551615
multi_lookahead prefetch line: 18446744073709551615
multi_lookahead prefetch line: 18446744073709551615
multi_lookahead prefetch line: 18446744073709551615
multi_lookahead prefetch line: 18446744073709551615
multi_lookahead prefetch line: 18446744073709551615
multi_lookahead prefetch line: 18446744073709551615
multi_lookahead prefetch line: 18446744073709551615
multi_lookahead prefetch line: 18446744073709551615
multi_lookahead prefetch line: 18446744073709551615
multi_lookahead prefetch line: 18446744073709551615
multi_lookahead prefetch line: 18446744073709551615
multi_lookahead prefetch line: 18446744073709551615
multi_lookahead prefetch line: 18446744073709551615
multi_lookahead prefetch line: 18446744073709551615
multi_lookahead prefetch line: 18446744073709551615
multi_lookahead prefetch line: 18446744073709551615
multi_lookahead prefetch line: 18446744073709551615
multi_lookahead prefetch line: 18446744073709551615
multi_lookahead prefetch line: 18446744073709551615
multi_lookahead prefetch line: 18446744073709551615
multi_lookahead prefetch line: 18446744073709551615
multi_lookahead prefetch line: 18446744073709551615
multi_lookahead prefetch line: 18446744073709551615
multi_lookahead prefetch line: 18446744073709551615
multi_lookahead prefetch line: 18446744073709551615
multi_lookahead prefetch line: 18446744073709551615
multi_lookahead prefetch line: 18446744073709551615
multi_lookahead prefetch line: 18446744073709551615
multi_lookahead prefetch line: 18446744073709551615
multi_lookahead prefetch line: 18446744073709551615
multi_lookahead prefetch line: 18446744073709551615
multi_lookahead prefetch line: 18446744073709551615
multi_lookahead prefetch line: 18446744073709551615
multi_lookahead prefetch line: 18446744073709551615
multi_lookahead prefetch line: 18446744073709551615
multi_lookahead prefetch line: 18446744073709551615
multi_lookahead prefetch line: 18446744073709551615
multi_lookahead prefetch line: 18446744073709551615
multi_lookahead prefetch line: 18446744073709551615
multi_lookahead prefetch line: 18446744073709551615
multi_lookahead prefetch line: 18446744073709551615
multi_lookahead prefetch line: 18446744073709551615
multi_lookahead prefetch line: 18446744073709551615
multi_lookahead prefetch line: 18446744073709551615
multi_lookahead prefetch line: 18446744073709551615
multi_lookahead prefetch line: 18446744073709551615
multi_lookahead prefetch line: 18446744073709551615
multi_lookahead prefetch line: 18446744073709551615
multi_lookahead prefetch line: 18446744073709551615
multi_lookahead prefetch line: 18446744073709551615
multi_lookahead prefetch line: 18446744073709551615
multi_lookahead prefetch line: 18446744073709551615
multi_lookahead prefetch line: 18446744073709551615
multi_lookahead prefetch line: 18446744073709551615
multi_lookahead prefetch line: 18446744073709551615
multi_lookahead prefetch line: 18446744073709551615
multi_lookahead prefetch line: 18446744073709551615
multi_lookahead prefetch line: 18446744073709551615
multi_lookahead prefetch line: 18446744073709551615
multi_lookahead prefetch line: 18446744073709551615
multi_lookahead prefetch line: 18446744073709551615
multi_lookahead prefetch line: 18446744073709551615
multi_lookahead prefetch line: 18446744073709551615
multi_lookahead prefetch line: 18446744073709551615
multi_lookahead prefetch line: 18446744073709551615
multi_lookahead prefetch line: 18446744073709551615
multi_lookahead prefetch line: 18446744073709551615
multi_lookahead prefetch line: 18446744073709551615
multi_lookahead prefetch line: 18446744073709551615
multi_lookahead prefetch line: 18446744073709551615
multi_lookahead prefetch line: 18446744073709551615
multi_lookahead prefetch line: 18446744073709551615
multi_lookahead prefetch line: 18446744073709551615
multi_lookahead prefetch line: 18446744073709551615
multi_lookahead prefetch line: 18446744073709551615
multi_lookahead prefetch line: 18446744073709551615
multi_lookahead prefetch line: 18446744073709551615
multi_lookahead prefetch line: 18446744073709551615
multi_lookahead prefetch line: 18446744073709551615
multi_lookahead prefetch line: 18446744073709551615
multi_lookahead prefetch line: 18446744073709551615
multi_lookahead prefetch line: 18446744073709551615
multi_lookahead prefetch line: 18446744073709551615
multi_lookahead prefetch line: 18446744073709551615
multi_lookahead prefetch line: 18446744073709551615
multi_lookahead prefetch line: 18446744073709551615
multi_lookahead prefetch line: 18446744073709551615
multi_lookahead prefetch line: 18446744073709551615
multi_lookahead prefetch line: 18446744073709551615
multi_lookahead prefetch line: 18446744073709551615
multi_lookahead prefetch line: 18446744073709551615
multi_lookahead prefetch line: 18446744073709551615
multi_lookahead prefetch line: 18446744073709551615
multi_lookahead prefetch line: 18446744073709551615
multi_lookahead prefetch line: 18446744073709551615
multi_lookahead prefetch line: 18446744073709551615
multi_lookahead prefetch line: 18446744073709551615
multi_lookahead prefetch line: 18446744073709551615
multi_lookahead prefetch line: 18446744073709551615
multi_lookahead prefetch line: 18446744073709551615
multi_lookahead prefetch line: 18446744073709551615
multi_lookahead prefetch line: 18446744073709551615
multi_lookahead prefetch line: 18446744073709551615
multi_lookahead prefetch line: 18446744073709551615
multi_lookahead prefetch line: 18446744073709551615
multi_lookahead prefetch line: 18446744073709551615
multi_lookahead prefetch line: 18446744073709551615
multi_lookahead prefetch line: 18446744073709551615
multi_lookahead prefetch line: 18446744073709551615
multi_lookahead prefetch line: 18446744073709551615
multi_lookahead prefetch line: 18446744073709551615
multi_lookahead prefetch line: 18446744073709551615
multi_lookahead prefetch line: 18446744073709551615
multi_lookahead prefetch line: 18446744073709551615
multi_lookahead prefetch line: 18446744073709551615
multi_lookahead prefetch line: 18446744073709551615
multi_lookahead prefetch line: 18446744073709551615
multi_lookahead prefetch line: 18446744073709551615
multi_lookahead prefetch line: 18446744073709551615
multi_lookahead prefetch line: 18446744073709551615
multi_lookahead prefetch line: 18446744073709551615
multi_lookahead prefetch line: 18446744073709551615
multi_lookahead prefetch line: 18446744073709551615
multi_lookahead prefetch line: 18446744073709551615
multi_lookahead prefetch line: 18446744073709551615
multi_lookahead prefetch line: 18446744073709551615
multi_lookahead prefetch line: 18446744073709551615
multi_lookahead prefetch line: 18446744073709551615
multi_lookahead prefetch line: 18446744073709551615
multi_lookahead prefetch line: 18446744073709551615
multi_lookahead prefetch line: 18446744073709551615
multi_lookahead prefetch line: 18446744073709551615
multi_lookahead prefetch line: 18446744073709551615
multi_lookahead prefetch line: 18446744073709551615
multi_lookahead prefetch line: 18446744073709551615
multi_lookahead prefetch line: 18446744073709551615
multi_lookahead prefetch line: 18446744073709551615
multi_lookahead prefetch line: 18446744073709551615
multi_lookahead prefetch line: 18446744073709551615
multi_lookahead prefetch line: 18446744073709551615
multi_lookahead prefetch line: 18446744073709551615
multi_lookahead prefetch line: 18446744073709551615
multi_lookahead prefetch line: 18446744073709551615
multi_lookahead prefetch line: 18446744073709551615
multi_lookahead prefetch line: 18446744073709551615
multi_lookahead prefetch line: 18446744073709551615
multi_lookahead prefetch line: 18446744073709551615
multi_lookahead prefetch line: 18446744073709551615
multi_lookahead prefetch line: 18446744073709551615
multi_lookahead prefetch line: 18446744073709551615
multi_lookahead prefetch line: 18446744073709551615
multi_lookahead prefetch line: 18446744073709551615
multi_lookahead prefetch line: 18446744073709551615
multi_lookahead prefetch line: 18446744073709551615
multi_lookahead prefetch line: 18446744073709551615
multi_lookahead prefetch line: 18446744073709551615
multi_lookahead prefetch line: 18446744073709551615
multi_lookahead prefetch line: 18446744073709551615
multi_lookahead prefetch line: 18446744073709551615
multi_lookahead prefetch line: 18446744073709551615
multi_lookahead prefetch line: 18446744073709551615
multi_lookahead prefetch line: 18446744073709551615
multi_lookahead prefetch line: 18446744073709551615
multi_lookahead prefetch line: 18446744073709551615
multi_lookahead prefetch line: 18446744073709551615
multi_lookahead prefetch line: 18446744073709551615
multi_lookahead prefetch line: 18446744073709551615
multi_lookahead prefetch line: 18446744073709551615
multi_lookahead prefetch line: 18446744073709551615
multi_lookahead prefetch line: 18446744073709551615
multi_lookahead prefetch line: 18446744073709551615
multi_lookahead prefetch line: 18446744073709551615
multi_lookahead prefetch line: 18446744073709551615
multi_lookahead prefetch line: 18446744073709551615
multi_lookahead prefetch line: 18446744073709551615
multi_lookahead prefetch line: 18446744073709551615
multi_lookahead prefetch line: 18446744073709551615
multi_lookahead prefetch line: 18446744073709551615
multi_lookahead prefetch line: 18446744073709551615
multi_lookahead prefetch line: 18446744073709551615
multi_lookahead prefetch line: 18446744073709551615
multi_lookahead prefetch line: 18446744073709551615
multi_lookahead prefetch line: 18446744073709551615
multi_lookahead prefetch line: 18446744073709551615
multi_lookahead prefetch line: 18446744073709551615
multi_lookahead prefetch line: 18446744073709551615
multi_lookahead prefetch line: 18446744073709551615
multi_lookahead prefetch line: 18446744073709551615
multi_lookahead prefetch line: 18446744073709551615
multi_lookahead prefetch line: 18446744073709551615
multi_lookahead prefetch line: 18446744073709551615
multi_lookahead prefetch line: 18446744073709551615
multi_lookahead prefetch line: 18446744073709551615
multi_lookahead prefetch line: 18446744073709551615
multi_lookahead prefetch line: 18446744073709551615
multi_lookahead prefetch line: 18446744073709551615
multi_lookahead prefetch line: 18446744073709551615
multi_lookahead prefetch line: 18446744073709551615
multi_lookahead prefetch line: 18446744073709551615
multi_lookahead prefetch line: 18446744073709551615
multi_lookahead prefetch line: 18446744073709551615
multi_lookahead prefetch line: 18446744073709551615
multi_lookahead prefetch line: 18446744073709551615
multi_lookahead prefetch line: 18446744073709551615
multi_lookahead prefetch line: 18446744073709551615
multi_lookahead prefetch line: 18446744073709551615
multi_lookahead prefetch line: 18446744073709551615
multi_lookahead prefetch line: 18446744073709551615
multi_lookahead prefetch line: 18446744073709551615
multi_lookahead prefetch line: 18446744073709551615
multi_lookahead prefetch line: 18446744073709551615
multi_lookahead prefetch line: 18446744073709551615
multi_lookahead prefetch line: 18446744073709551615
multi_lookahead prefetch line: 18446744073709551615
multi_lookahead prefetch line: 18446744073709551615
multi_lookahead prefetch line: 18446744073709551615
multi_lookahead prefetch line: 18446744073709551615
multi_lookahead prefetch line: 18446744073709551615
multi_lookahead prefetch line: 18446744073709551615
multi_lookahead prefetch line: 18446744073709551615
multi_lookahead prefetch line: 18446744073709551615
multi_lookahead prefetch line: 18446744073709551615
multi_lookahead prefetch line: 18446744073709551615
multi_lookahead prefetch line: 18446744073709551615
multi_lookahead prefetch line: 18446744073709551615
multi_lookahead prefetch line: 18446744073709551615
multi_lookahead prefetch line: 18446744073709551615
multi_lookahead prefetch line: 18446744073709551615
multi_lookahead prefetch line: 18446744073709551615
multi_lookahead prefetch line: 18446744073709551615
multi_lookahead prefetch line: 18446744073709551615
multi_lookahead prefetch line: 18446744073709551615
multi_lookahead prefetch line: 18446744073709551615
multi_lookahead prefetch line: 18446744073709551615
multi_lookahead prefetch line: 18446744073709551615
multi_lookahead prefetch line: 18446744073709551615
multi_lookahead prefetch line: 18446744073709551615
multi_lookahead prefetch line: 18446744073709551615
multi_lookahead prefetch line: 18446744073709551615
multi_lookahead prefetch line: 18446744073709551615
multi_lookahead prefetch line: 18446744073709551615
multi_lookahead prefetch line: 18446744073709551615
multi_lookahead prefetch line: 18446744073709551615
multi_lookahead prefetch line: 18446744073709551615
multi_lookahead prefetch line: 18446744073709551615
multi_lookahead prefetch line: 18446744073709551615
multi_lookahead prefetch line: 18446744073709551615
multi_lookahead prefetch line: 18446744073709551615
multi_lookahead prefetch line: 18446744073709551615
multi_lookahead prefetch line: 18446744073709551615
multi_lookahead prefetch line: 18446744073709551615
multi_lookahead prefetch line: 18446744073709551615
multi_lookahead prefetch line: 18446744073709551615
multi_lookahead prefetch line: 18446744073709551615
multi_lookahead prefetch line: 18446744073709551615
multi_lookahead prefetch line: 18446744073709551615
multi_lookahead prefetch line: 18446744073709551615
multi_lookahead prefetch line: 18446744073709551615
multi_lookahead prefetch line: 18446744073709551615
multi_lookahead prefetch line: 18446744073709551615
multi_lookahead prefetch line: 18446744073709551615
multi_lookahead prefetch line: 18446744073709551615
multi_lookahead prefetch line: 18446744073709551615
multi_lookahead prefetch line: 18446744073709551615
multi_lookahead prefetch line: 18446744073709551615
multi_lookahead prefetch line: 18446744073709551615
multi_lookahead prefetch line: 18446744073709551615
multi_lookahead prefetch line: 18446744073709551615
multi_lookahead prefetch line: 18446744073709551615
multi_lookahead prefetch line: 18446744073709551615
multi_lookahead prefetch line: 18446744073709551615
multi_lookahead prefetch line: 18446744073709551615
multi_lookahead prefetch line: 18446744073709551615
multi_lookahead prefetch line: 18446744073709551615
multi_lookahead prefetch line: 18446744073709551615
multi_lookahead prefetch line: 18446744073709551615
multi_lookahead prefetch line: 18446744073709551615
multi_lookahead prefetch line: 18446744073709551615
multi_lookahead prefetch line: 18446744073709551615
multi_lookahead prefetch line: 18446744073709551615
multi_lookahead prefetch line: 18446744073709551615
multi_lookahead prefetch line: 18446744073709551615
multi_lookahead prefetch line: 18446744073709551615
multi_lookahead prefetch line: 18446744073709551615
multi_lookahead prefetch line: 18446744073709551615
multi_lookahead prefetch line: 18446744073709551615
multi_lookahead prefetch line: 18446744073709551615
multi_lookahead prefetch line: 18446744073709551615
multi_lookahead prefetch line: 18446744073709551615
multi_lookahead prefetch line: 18446744073709551615
multi_lookahead prefetch line: 18446744073709551615
multi_lookahead prefetch line: 18446744073709551615
multi_lookahead prefetch line: 18446744073709551615
multi_lookahead prefetch line: 18446744073709551615
multi_lookahead prefetch line: 18446744073709551615
multi_lookahead prefetch line: 18446744073709551615
multi_lookahead prefetch line: 18446744073709551615
multi_lookahead prefetch line: 18446744073709551615
multi_lookahead prefetch line: 18446744073709551615
multi_lookahead prefetch line: 18446744073709551615
multi_lookahead prefetch line: 18446744073709551615
multi_lookahead prefetch line: 18446744073709551615
multi_lookahead prefetch line: 18446744073709551615
multi_lookahead prefetch line: 18446744073709551615
multi_lookahead prefetch line: 18446744073709551615
multi_lookahead prefetch line: 18446744073709551615
multi_lookahead prefetch line: 18446744073709551615
multi_lookahead prefetch line: 18446744073709551615
multi_lookahead prefetch line: 18446744073709551615
multi_lookahead prefetch line: 18446744073709551615
multi_lookahead prefetch line: 18446744073709551615
multi_lookahead prefetch line: 18446744073709551615
multi_lookahead prefetch line: 18446744073709551615
multi_lookahead prefetch line: 18446744073709551615
multi_lookahead prefetch line: 18446744073709551615
multi_lookahead prefetch line: 18446744073709551615
multi_lookahead prefetch line: 18446744073709551615
multi_lookahead prefetch line: 18446744073709551615
multi_lookahead prefetch line: 18446744073709551615
multi_lookahead prefetch line: 18446744073709551615
multi_lookahead prefetch line: 18446744073709551615
multi_lookahead prefetch line: 18446744073709551615
multi_lookahead prefetch line: 18446744073709551615
multi_lookahead prefetch line: 18446744073709551615
multi_lookahead prefetch line: 18446744073709551615
multi_lookahead prefetch line: 18446744073709551615
multi_lookahead prefetch line: 18446744073709551615
multi_lookahead prefetch line: 18446744073709551615
multi_lookahead prefetch line: 18446744073709551615
multi_lookahead prefetch line: 18446744073709551615
multi_lookahead prefetch line: 18446744073709551615
multi_lookahead prefetch line: 18446744073709551615
multi_lookahead prefetch line: 18446744073709551615
multi_lookahead prefetch line: 18446744073709551615
multi_lookahead prefetch line: 18446744073709551615
multi_lookahead prefetch line: 18446744073709551615
multi_lookahead prefetch line: 18446744073709551615
multi_lookahead prefetch line: 18446744073709551615
multi_lookahead prefetch line: 18446744073709551615
multi_lookahead prefetch line: 18446744073709551615
multi_lookahead prefetch line: 18446744073709551615
multi_lookahead prefetch line: 18446744073709551615
multi_lookahead prefetch line: 18446744073709551615
multi_lookahead prefetch line: 18446744073709551615
multi_lookahead prefetch line: 18446744073709551615
multi_lookahead prefetch line: 18446744073709551615
multi_lookahead prefetch line: 18446744073709551615
multi_lookahead prefetch line: 18446744073709551615
multi_lookahead prefetch line: 18446744073709551615
multi_lookahead prefetch line: 18446744073709551615
multi_lookahead prefetch line: 18446744073709551615
multi_lookahead prefetch line: 18446744073709551615
multi_lookahead prefetch line: 18446744073709551615
multi_lookahead prefetch line: 18446744073709551615
multi_lookahead prefetch line: 18446744073709551615
multi_lookahead prefetch line: 18446744073709551615
multi_lookahead prefetch line: 18446744073709551615
multi_lookahead prefetch line: 18446744073709551615
multi_lookahead prefetch line: 18446744073709551615
multi_lookahead prefetch line: 18446744073709551615
multi_lookahead prefetch line: 18446744073709551615
multi_lookahead prefetch line: 18446744073709551615
multi_lookahead prefetch line: 18446744073709551615
multi_lookahead prefetch line: 18446744073709551615
multi_lookahead prefetch line: 18446744073709551615
multi_lookahead prefetch line: 18446744073709551615
multi_lookahead prefetch line: 18446744073709551615
multi_lookahead prefetch line: 18446744073709551615
multi_lookahead prefetch line: 18446744073709551615
multi_lookahead prefetch line: 18446744073709551615
multi_lookahead prefetch line: 18446744073709551615
multi_lookahead prefetch line: 18446744073709551615
multi_lookahead prefetch line: 18446744073709551615
multi_lookahead prefetch line: 18446744073709551615
multi_lookahead prefetch line: 18446744073709551615
multi_lookahead prefetch line: 18446744073709551615
multi_lookahead prefetch line: 18446744073709551615
multi_lookahead prefetch line: 18446744073709551615
multi_lookahead prefetch line: 18446744073709551615
multi_lookahead prefetch line: 18446744073709551615
multi_lookahead prefetch line: 18446744073709551615
multi_lookahead prefetch line: 18446744073709551615
multi_lookahead prefetch line: 18446744073709551615
multi_lookahead prefetch line: 18446744073709551615
multi_lookahead prefetch line: 18446744073709551615
multi_lookahead prefetch line: 18446744073709551615
multi_lookahead prefetch line: 18446744073709551615
multi_lookahead prefetch line: 18446744073709551615
multi_lookahead prefetch line: 18446744073709551615
multi_lookahead prefetch line: 18446744073709551615
multi_lookahead prefetch line: 18446744073709551615
multi_lookahead prefetch line: 18446744073709551615
multi_lookahead prefetch line: 18446744073709551615
multi_lookahead prefetch line: 18446744073709551615
multi_lookahead prefetch line: 18446744073709551615
multi_lookahead prefetch line: 18446744073709551615
multi_lookahead prefetch line: 18446744073709551615
multi_lookahead prefetch line: 18446744073709551615
multi_lookahead prefetch line: 18446744073709551615
multi_lookahead prefetch line: 18446744073709551615
multi_lookahead prefetch line: 18446744073709551615
multi_lookahead prefetch line: 18446744073709551615
multi_lookahead prefetch line: 18446744073709551615
multi_lookahead prefetch line: 18446744073709551615
multi_lookahead prefetch line: 18446744073709551615
multi_lookahead prefetch line: 18446744073709551615
multi_lookahead prefetch line: 18446744073709551615
multi_lookahead prefetch line: 18446744073709551615
multi_lookahead prefetch line: 18446744073709551615
multi_lookahead prefetch line: 18446744073709551615
multi_lookahead prefetch line: 18446744073709551615
multi_lookahead prefetch line: 18446744073709551615
multi_lookahead prefetch line: 18446744073709551615
multi_lookahead prefetch line: 18446744073709551615
multi_lookahead prefetch line: 18446744073709551615
multi_lookahead prefetch line: 18446744073709551615
multi_lookahead prefetch line: 18446744073709551615
multi_lookahead prefetch line: 18446744073709551615
multi_lookahead prefetch line: 18446744073709551615
multi_lookahead prefetch line: 18446744073709551615
multi_lookahead prefetch line: 18446744073709551615
multi_lookahead prefetch line: 18446744073709551615
multi_lookahead prefetch line: 18446744073709551615
multi_lookahead prefetch line: 18446744073709551615
multi_lookahead prefetch line: 18446744073709551615
multi_lookahead prefetch line: 18446744073709551615
multi_lookahead prefetch line: 18446744073709551615
multi_lookahead prefetch line: 18446744073709551615
multi_lookahead prefetch line: 18446744073709551615
multi_lookahead prefetch line: 18446744073709551615
multi_lookahead prefetch line: 18446744073709551615
multi_lookahead prefetch line: 18446744073709551615
multi_lookahead prefetch line: 18446744073709551615
multi_lookahead prefetch line: 18446744073709551615
multi_lookahead prefetch line: 18446744073709551615
multi_lookahead prefetch line: 18446744073709551615
multi_lookahead prefetch line: 18446744073709551615
multi_lookahead prefetch line: 18446744073709551615
multi_lookahead prefetch line: 18446744073709551615
multi_lookahead prefetch line: 18446744073709551615
multi_lookahead prefetch line: 18446744073709551615
multi_lookahead prefetch line: 18446744073709551615
multi_lookahead prefetch line: 18446744073709551615
multi_lookahead prefetch line: 18446744073709551615
multi_lookahead prefetch line: 18446744073709551615
multi_lookahead prefetch line: 18446744073709551615
multi_lookahead prefetch line: 18446744073709551615
multi_lookahead prefetch line: 18446744073709551615
multi_lookahead prefetch line: 18446744073709551615
multi_lookahead prefetch line: 18446744073709551615
multi_lookahead prefetch line: 18446744073709551615
multi_lookahead prefetch line: 18446744073709551615
multi_lookahead prefetch line: 18446744073709551615
multi_lookahead prefetch line: 18446744073709551615
multi_lookahead prefetch line: 18446744073709551615
multi_lookahead prefetch line: 18446744073709551615
multi_lookahead prefetch line: 18446744073709551615
multi_lookahead prefetch line: 18446744073709551615
multi_lookahead prefetch line: 18446744073709551615
multi_lookahead prefetch line: 18446744073709551615
multi_lookahead prefetch line: 18446744073709551615
multi_lookahead prefetch line: 18446744073709551615
multi_lookahead prefetch line: 18446744073709551615
multi_lookahead prefetch line: 18446744073709551615
multi_lookahead prefetch line: 18446744073709551615
multi_lookahead prefetch line: 18446744073709551615
multi_lookahead prefetch line: 18446744073709551615
multi_lookahead prefetch line: 18446744073709551615
multi_lookahead prefetch line: 18446744073709551615
multi_lookahead prefetch line: 18446744073709551615
multi_lookahead prefetch line: 18446744073709551615
multi_lookahead prefetch line: 18446744073709551615
multi_lookahead prefetch line: 18446744073709551615
multi_lookahead prefetch line: 18446744073709551615
multi_lookahead prefetch line: 18446744073709551615
multi_lookahead prefetch line: 18446744073709551615
multi_lookahead prefetch line: 18446744073709551615
multi_lookahead prefetch line: 18446744073709551615
multi_lookahead prefetch line: 18446744073709551615
multi_lookahead prefetch line: 18446744073709551615
multi_lookahead prefetch line: 18446744073709551615
multi_lookahead prefetch line: 18446744073709551615
multi_lookahead prefetch line: 18446744073709551615
multi_lookahead prefetch line: 18446744073709551615
multi_lookahead prefetch line: 18446744073709551615
multi_lookahead prefetch line: 18446744073709551615
multi_lookahead prefetch line: 18446744073709551615
multi_lookahead prefetch line: 18446744073709551615
multi_lookahead prefetch line: 18446744073709551615
multi_lookahead prefetch line: 18446744073709551615
multi_lookahead prefetch line: 18446744073709551615
multi_lookahead prefetch line: 18446744073709551615
multi_lookahead prefetch line: 18446744073709551615
multi_lookahead prefetch line: 18446744073709551615
multi_lookahead prefetch line: 18446744073709551615
multi_lookahead prefetch line: 18446744073709551615
multi_lookahead prefetch line: 18446744073709551615
multi_lookahead prefetch line: 18446744073709551615
multi_lookahead prefetch line: 18446744073709551615
multi_lookahead prefetch line: 18446744073709551615
multi_lookahead prefetch line: 18446744073709551615
multi_lookahead prefetch line: 18446744073709551615
multi_lookahead prefetch line: 18446744073709551615
multi_lookahead prefetch line: 18446744073709551615
multi_lookahead prefetch line: 18446744073709551615
multi_lookahead prefetch line: 18446744073709551615
multi_lookahead prefetch line: 18446744073709551615
multi_lookahead prefetch line: 18446744073709551615
multi_lookahead prefetch line: 18446744073709551615
multi_lookahead prefetch line: 18446744073709551615
multi_lookahead prefetch line: 18446744073709551615
multi_lookahead prefetch line: 18446744073709551615
multi_lookahead prefetch line: 18446744073709551615
multi_lookahead prefetch line: 18446744073709551615
multi_lookahead prefetch line: 18446744073709551615
multi_lookahead prefetch line: 18446744073709551615
multi_lookahead prefetch line: 18446744073709551615
multi_lookahead prefetch line: 18446744073709551615
multi_lookahead prefetch line: 18446744073709551615
[...]
multi_lookahead prefetch line: 18446744073709551615
multi_lookahead prefetch line: 18446744073709551615
multi_lookahead prefetch line: 18446744073709551615
multi_lookahead prefetch line: 18446744073709551615
multi_lookahead prefetch line: 18446744073709551615
multi_lookahead prefetch line: 18446744073709551615
multi_lookahead prefetch line: 18446744073709551615
multi_lookahead prefetch line: 18446744073709551615
multi_lookahead prefetch line: 18446744073709551615
multi_lookahead prefetch line: 18446744073709551615
multi_lookahead prefetch line: 18446744073709551615
multi_lookahead prefetch line: 18446744073709551615
multi_lookahead prefetch line: 18446744073709551615
multi_lookahead prefetch line: 18446744073709551615
multi_lookahead prefetch line: 18446744073709551615
multi_lookahead prefetch line: 18446744073709551615
multi_lookahead prefetch line: 18446744073709551615
multi_lookahead prefetch line: 18446744073709551615
multi_lookahead prefetch line: 18446744073709551615
multi_lookahead prefetch line: 18446744073709551615
multi_lookahead prefetch line: 18446744073709551615
multi_lookahead prefetch line: 18446744073709551615
multi_lookahead prefetch line: 18446744073709551615
multi_lookahead prefetch line: 18446744073709551615
multi_lookahead prefetch line: 18446744073709551615
multi_lookahead prefetch line: 18446744073709551615
multi_lookahead prefetch line: 18446744073709551615
multi_lookahead prefetch line: 18446744073709551615
multi_lookahead prefetch line: 18446744073709551615
multi_lookahead prefetch line: 18446744073709551615
multi_lookahead prefetch line: 18446744073709551615
multi_lookahead prefetch line: 18446744073709551615
multi_lookahead prefetch line: 18446744073709551615
multi_lookahead prefetch line: 18446744073709551615
multi_lookahead prefetch line: 18446744073709551615
multi_lookahead prefetch line: 18446744073709551615
multi_lookahead prefetch line: 18446744073709551615
multi_lookahead prefetch line: 18446744073709551615
multi_lookahead prefetch line: 18446744073709551615
multi_lookahead prefetch line: 18446744073709551615
multi_lookahead prefetch line: 18446744073709551615
multi_lookahead prefetch line: 18446744073709551615
multi_lookahead prefetch line: 18446744073709551615
multi_lookahead prefetch line: 18446744073709551615
multi_lookahead prefetch line: 18446744073709551615
multi_lookahead prefetch line: 18446744073709551615
multi_lookahead prefetch line: 18446744073709551615
multi_lookahead prefetch line: 18446744073709551615
multi_lookahead prefetch line: 18446744073709551615
multi_lookahead prefetch line: 18446744073709551615
multi_lookahead prefetch line: 18446744073709551615
multi_lookahead prefetch line: 18446744073709551615
multi_lookahead prefetch line: 18446744073709551615
multi_lookahead prefetch line: 18446744073709551615
multi_lookahead prefetch line: 18446744073709551615
multi_lookahead prefetch line: 18446744073709551615
multi_lookahead prefetch line: 18446744073709551615
multi_lookahead prefetch line: 18446744073709551615
multi_lookahead prefetch line: 18446744073709551615
multi_lookahead prefetch line: 18446744073709551615
multi_lookahead prefetch line: 18446744073709551615
multi_lookahead prefetch line: 18446744073709551615
multi_lookahead prefetch line: 18446744073709551615
multi_lookahead prefetch line: 18446744073709551615
multi_lookahead prefetch line: 18446744073709551615
multi_lookahead prefetch line: 18446744073709551615
multi_lookahead prefetch line: 18446744073709551615
multi_lookahead prefetch line: 18446744073709551615
multi_lookahead prefetch line: 18446744073709551615
multi_lookahead prefetch line: 18446744073709551615
multi_lookahead prefetch line: 18446744073709551615
multi_lookahead prefetch line: 18446744073709551615
multi_lookahead prefetch line: 18446744073709551615
multi_lookahead prefetch line: 18446744073709551615
multi_lookahead prefetch line: 18446744073709551615
multi_lookahead prefetch line: 18446744073709551615
multi_lookahead prefetch line: 18446744073709551615
multi_lookahead prefetch line: 18446744073709551615
multi_lookahead prefetch line: 18446744073709551615
multi_lookahead prefetch line: 18446744073709551615
multi_lookahead prefetch line: 18446744073709551615
multi_lookahead prefetch line: 18446744073709551615
multi_lookahead prefetch line: 18446744073709551615
multi_lookahead prefetch line: 18446744073709551615
multi_lookahead prefetch line: 18446744073709551615
multi_lookahead prefetch line: 18446744073709551615
multi_lookahead prefetch line: 18446744073709551615
multi_lookahead prefetch line: 18446744073709551615
multi_lookahead prefetch line: 18446744073709551615
multi_lookahead prefetch line: 18446744073709551615
multi_lookahead prefetch line: 18446744073709551615
multi_lookahead prefetch line: 18446744073709551615
multi_lookahead prefetch line: 18446744073709551615
multi_lookahead prefetch line: 18446744073709551615
multi_lookahead prefetch line: 18446744073709551615
multi_lookahead prefetch line: 18446744073709551615
multi_lookahead prefetch line: 18446744073709551615
multi_lookahead prefetch line: 18446744073709551615
multi_lookahead prefetch line: 18446744073709551615
multi_lookahead prefetch line: 18446744073709551615
multi_lookahead prefetch line: 18446744073709551615
multi_lookahead prefetch line: 18446744073709551615
multi_lookahead prefetch line: 18446744073709551615
multi_lookahead prefetch line: 18446744073709551615
multi_lookahead prefetch line: 18446744073709551615
multi_lookahead prefetch line: 18446744073709551615
multi_lookahead prefetch line: 18446744073709551615
multi_lookahead prefetch line: 18446744073709551615
multi_lookahead prefetch line: 18446744073709551615
multi_lookahead prefetch line: 18446744073709551615
multi_lookahead prefetch line: 18446744073709551615
multi_lookahead prefetch line: 18446744073709551615
multi_lookahead prefetch line: 18446744073709551615
multi_lookahead prefetch line: 18446744073709551615
multi_lookahead prefetch line: 18446744073709551615
multi_lookahead prefetch line: 18446744073709551615
multi_lookahead prefetch line: 18446744073709551615
multi_lookahead prefetch line: 18446744073709551615
multi_lookahead prefetch line: 18446744073709551615
multi_lookahead prefetch line: 18446744073709551615
multi_lookahead prefetch line: 18446744073709551615
multi_lookahead prefetch line: 18446744073709551615
multi_lookahead prefetch line: 18446744073709551615
multi_lookahead prefetch line: 18446744073709551615
multi_lookahead prefetch line: 18446744073709551615
multi_lookahead prefetch line: 18446744073709551615
multi_lookahead prefetch line: 18446744073709551615
multi_lookahead prefetch line: 18446744073709551615
multi_lookahead prefetch line: 18446744073709551615
multi_lookahead prefetch line: 18446744073709551615
multi_lookahead prefetch line: 18446744073709551615
multi_lookahead prefetch line: 18446744073709551615
multi_lookahead prefetch line: 18446744073709551615
multi_lookahead prefetch line: 18446744073709551615
multi_lookahead prefetch line: 18446744073709551615
multi_lookahead prefetch line: 18446744073709551615
multi_lookahead prefetch line: 18446744073709551615
multi_lookahead prefetch line: 18446744073709551615
multi_lookahead prefetch line: 18446744073709551615
multi_lookahead prefetch line: 18446744073709551615
multi_lookahead prefetch line: 18446744073709551615
multi_lookahead prefetch line: 18446744073709551615
multi_lookahead prefetch line: 18446744073709551615
multi_lookahead prefetch line: 18446744073709551615
multi_lookahead prefetch line: 18446744073709551615
multi_lookahead prefetch line: 18446744073709551615
multi_lookahead prefetch line: 18446744073709551615
multi_lookahead prefetch line: 18446744073709551615
multi_lookahead prefetch line: 18446744073709551615
multi_lookahead prefetch line: 18446744073709551615
multi_lookahead prefetch line: 18446744073709551615
multi_lookahead prefetch line: 18446744073709551615
multi_lookahead prefetch line: 18446744073709551615
multi_lookahead prefetch line: 18446744073709551615
multi_lookahead prefetch line: 18446744073709551615
multi_lookahead prefetch line: 18446744073709551615
multi_lookahead prefetch line: 18446744073709551615
multi_lookahead prefetch line: 18446744073709551615
multi_lookahead prefetch line: 18446744073709551615
multi_lookahead prefetch line: 18446744073709551615
multi_lookahead prefetch line: 18446744073709551615
multi_lookahead prefetch line: 18446744073709551615
multi_lookahead prefetch line: 18446744073709551615
multi_lookahead prefetch line: 18446744073709551615
multi_lookahead prefetch line: 18446744073709551615
multi_lookahead prefetch line: 18446744073709551615
multi_lookahead prefetch line: 18446744073709551615
multi_lookahead prefetch line: 18446744073709551615
multi_lookahead prefetch line: 18446744073709551615
multi_lookahead prefetch line: 18446744073709551615
multi_lookahead prefetch line: 18446744073709551615
multi_lookahead prefetch line: 18446744073709551615
multi_lookahead prefetch line: 18446744073709551615
multi_lookahead prefetch line: 18446744073709551615
multi_lookahead prefetch line: 18446744073709551615
multi_lookahead prefetch line: 18446744073709551615
multi_lookahead prefetch line: 18446744073709551615
multi_lookahead prefetch line: 18446744073709551615
multi_lookahead prefetch line: 18446744073709551615
multi_lookahead prefetch line: 18446744073709551615
multi_lookahead prefetch line: 18446744073709551615
multi_lookahead prefetch line: 18446744073709551615
multi_lookahead prefetch line: 18446744073709551615
multi_lookahead prefetch line: 18446744073709551615
multi_lookahead prefetch line: 18446744073709551615
multi_lookahead prefetch line: 18446744073709551615
multi_lookahead prefetch line: 18446744073709551615
multi_lookahead prefetch line: 18446744073709551615
multi_lookahead prefetch line: 18446744073709551615
multi_lookahead prefetch line: 18446744073709551615
multi_lookahead prefetch line: 18446744073709551615
multi_lookahead prefetch line: 18446744073709551615
multi_lookahead prefetch line: 18446744073709551615
multi_lookahead prefetch line: 18446744073709551615
multi_lookahead prefetch line: 18446744073709551615
multi_lookahead prefetch line: 18446744073709551615
multi_lookahead prefetch line: 18446744073709551615
multi_lookahead prefetch line: 18446744073709551615
multi_lookahead prefetch line: 18446744073709551615
multi_lookahead prefetch line: 18446744073709551615
multi_lookahead prefetch line: 18446744073709551615
multi_lookahead prefetch line: 18446744073709551615
multi_lookahead prefetch line: 18446744073709551615
multi_lookahead prefetch line: 18446744073709551615
multi_lookahead prefetch line: 18446744073709551615
multi_lookahead prefetch line: 18446744073709551615
multi_lookahead prefetch line: 18446744073709551615
multi_lookahead prefetch line: 18446744073709551615
multi_lookahead prefetch line: 18446744073709551615
multi_lookahead prefetch line: 18446744073709551615
multi_lookahead prefetch line: 18446744073709551615
multi_lookahead prefetch line: 18446744073709551615
multi_lookahead prefetch line: 18446744073709551615
multi_lookahead prefetch line: 18446744073709551615
multi_lookahead prefetch line: 18446744073709551615
multi_lookahead prefetch line: 18446744073709551615
multi_lookahead prefetch line: 18446744073709551615
multi_lookahead prefetch line: 18446744073709551615
multi_lookahead prefetch line: 18446744073709551615
multi_lookahead prefetch line: 18446744073709551615
multi_lookahead prefetch line: 18446744073709551615
multi_lookahead prefetch line: 18446744073709551615
multi_lookahead prefetch line: 18446744073709551615
multi_lookahead prefetch line: 18446744073709551615
multi_lookahead prefetch line: 18446744073709551615
multi_lookahead prefetch line: 18446744073709551615
multi_lookahead prefetch line: 18446744073709551615
multi_lookahead prefetch line: 18446744073709551615
multi_lookahead prefetch line: 18446744073709551615
multi_lookahead prefetch line: 18446744073709551615
multi_lookahead prefetch line: 18446744073709551615
multi_lookahead prefetch line: 18446744073709551615
multi_lookahead prefetch line: 18446744073709551615
multi_lookahead prefetch line: 18446744073709551615
multi_lookahead prefetch line: 18446744073709551615
multi_lookahead prefetch line: 18446744073709551615
multi_lookahead prefetch line: 18446744073709551615
multi_lookahead prefetch line: 18446744073709551615
multi_lookahead prefetch line: 18446744073709551615
multi_lookahead prefetch line: 18446744073709551615
multi_lookahead prefetch line: 18446744073709551615
multi_lookahead prefetch line: 18446744073709551615
multi_lookahead prefetch line: 18446744073709551615
multi_lookahead prefetch line: 18446744073709551615
multi_lookahead prefetch line: 18446744073709551615
multi_lookahead prefetch line: 18446744073709551615
multi_lookahead prefetch line: 18446744073709551615
multi_lookahead prefetch line: 18446744073709551615
multi_lookahead prefetch line: 18446744073709551615
multi_lookahead prefetch line: 18446744073709551615
multi_lookahead prefetch line: 18446744073709551615
multi_lookahead prefetch line: 18446744073709551615
multi_lookahead prefetch line: 18446744073709551615
multi_lookahead prefetch line: 18446744073709551615
multi_lookahead prefetch line: 18446744073709551615
multi_lookahead prefetch line: 18446744073709551615
multi_lookahead prefetch line: 18446744073709551615
multi_lookahead prefetch line: 18446744073709551615
multi_lookahead prefetch line: 18446744073709551615
multi_lookahead prefetch line: 18446744073709551615
multi_lookahead prefetch line: 18446744073709551615
multi_lookahead prefetch line: 18446744073709551615
multi_lookahead prefetch line: 18446744073709551615
multi_lookahead prefetch line: 18446744073709551615
multi_lookahead prefetch line: 18446744073709551615
multi_lookahead prefetch line: 18446744073709551615
multi_lookahead prefetch line: 18446744073709551615
multi_lookahead prefetch line: 18446744073709551615
multi_lookahead prefetch line: 18446744073709551615
multi_lookahead prefetch line: 18446744073709551615
multi_lookahead prefetch line: 18446744073709551615
multi_lookahead prefetch line: 18446744073709551615
multi_lookahead prefetch line: 18446744073709551615
multi_lookahead prefetch line: 18446744073709551615
multi_lookahead prefetch line: 18446744073709551615
multi_lookahead prefetch line: 18446744073709551615
multi_lookahead prefetch line: 18446744073709551615
multi_lookahead prefetch line: 18446744073709551615
multi_lookahead prefetch line: 18446744073709551615
multi_lookahead prefetch line: 18446744073709551615
multi_lookahead prefetch line: 18446744073709551615
multi_lookahead prefetch line: 18446744073709551615
multi_lookahead prefetch line: 18446744073709551615
multi_lookahead prefetch line: 18446744073709551615
multi_lookahead prefetch line: 18446744073709551615
multi_lookahead prefetch line: 18446744073709551615
multi_lookahead prefetch line: 18446744073709551615
multi_lookahead prefetch line: 18446744073709551615
multi_lookahead prefetch line: 18446744073709551615
multi_lookahead prefetch line: 18446744073709551615
multi_lookahead prefetch line: 18446744073709551615
multi_lookahead prefetch line: 18446744073709551615
multi_lookahead prefetch line: 18446744073709551615
multi_lookahead prefetch line: 18446744073709551615
multi_lookahead prefetch line: 18446744073709551615
multi_lookahead prefetch line: 18446744073709551615
multi_lookahead prefetch line: 18446744073709551615
multi_lookahead prefetch line: 18446744073709551615
multi_lookahead prefetch line: 18446744073709551615
multi_lookahead prefetch line: 18446744073709551615
multi_lookahead prefetch line: 18446744073709551615
multi_lookahead prefetch line: 18446744073709551615
multi_lookahead prefetch line: 18446744073709551615
multi_lookahead prefetch line: 18446744073709551615
multi_lookahead prefetch line: 18446744073709551615
multi_lookahead prefetch line: 18446744073709551615
multi_lookahead prefetch line: 18446744073709551615
multi_lookahead prefetch line: 18446744073709551615
multi_lookahead prefetch line: 18446744073709551615
multi_lookahead prefetch line: 18446744073709551615
multi_lookahead prefetch line: 18446744073709551615
multi_lookahead prefetch line: 18446744073709551615
multi_lookahead prefetch line: 18446744073709551615
multi_lookahead prefetch line: 18446744073709551615
multi_lookahead prefetch line: 18446744073709551615
Finished CPU 0 instructions: 25001 cycles: 193928 cumulative IPC: 0.128919 (Simulation time: 0 hr 0 min 5 sec) 

ChampSim completed all CPUs

Region of Interest Statistics

CPU 0 cumulative IPC: 0.128919 instructions: 25001 cycles: 193928
cpu0_DTLB TOTAL     ACCESS:       3313  HIT:       3313  MISS:          0
cpu0_DTLB LOAD      ACCESS:       3193  HIT:       3193  MISS:          0
cpu0_DTLB RFO       ACCESS:        120  HIT:        120  MISS:          0
cpu0_DTLB PREFETCH  ACCESS:          0  HIT:          0  MISS:          0
cpu0_DTLB WRITEBACK ACCESS:          0  HIT:          0  MISS:          0
cpu0_DTLB TRANSLATION ACCESS:          0  HIT:          0  MISS:          0
cpu0_DTLB PREFETCH  REQUESTED:          0  ISSUED:          0  USEFUL:          0  USELESS:          0
cpu0_DTLB AVERAGE MISS LATENCY: -nan cycles
cpu0_ITLB TOTAL     ACCESS:       1508  HIT:       1508  MISS:          0
cpu0_ITLB LOAD      ACCESS:       1508  HIT:       1508  MISS:          0
cpu0_ITLB RFO       ACCESS:          0  HIT:          0  MISS:          0
cpu0_ITLB PREFETCH  ACCESS:          0  HIT:          0  MISS:          0
cpu0_ITLB WRITEBACK ACCESS:          0  HIT:          0  MISS:          0
cpu0_ITLB TRANSLATION ACCESS:          0  HIT:          0  MISS:          0
cpu0_ITLB PREFETCH  REQUESTED:          0  ISSUED:          0  USEFUL:          0  USELESS:          0
cpu0_ITLB AVERAGE MISS LATENCY: -nan cycles
cpu0_L1D TOTAL     ACCESS:       3518  HIT:       1758  MISS:       1760
cpu0_L1D LOAD      ACCESS:       3187  HIT:       1427  MISS:       1760
cpu0_L1D RFO       ACCESS:        331  HIT:        331  MISS:          0
cpu0_L1D PREFETCH  ACCESS:          0  HIT:          0  MISS:          0
cpu0_L1D WRITEBACK ACCESS:          0  HIT:          0  MISS:          0
cpu0_L1D TRANSLATION ACCESS:          0  HIT:          0  MISS:          0
cpu0_L1D PREFETCH  REQUESTED:          0  ISSUED:          0  USEFUL:          0  USELESS:          0
cpu0_L1D AVERAGE MISS LATENCY: 105.295 cycles
cpu0_L2C TOTAL     ACCESS:       3471  HIT:       1711  MISS:       1760
cpu0_L2C LOAD      ACCESS:       1760  HIT:          0  MISS:       1760
cpu0_L2C RFO       ACCESS:          0  HIT:          0  MISS:          0
cpu0_L2C PREFETCH  ACCESS:       1708  HIT:       1708  MISS:          0
cpu0_L2C WRITEBACK ACCESS:          3  HIT:          3  MISS:          0
cpu0_L2C TRANSLATION ACCESS:          0  HIT:          0  MISS:          0
cpu0_L2C PREFETCH  REQUESTED:      28160  ISSUED:       1708  USEFUL:          0  USELESS:          0
cpu0_L2C AVERAGE MISS LATENCY: 94.3 cycles
LLC TOTAL     ACCESS:       1760  HIT:          0  MISS:       1760
LLC LOAD      ACCESS:       1760  HIT:          0  MISS:       1760
LLC RFO       ACCESS:          0  HIT:          0  MISS:          0
LLC PREFETCH  ACCESS:          0  HIT:          0  MISS:          0
LLC WRITEBACK ACCESS:          0  HIT:          0  MISS:          0
LLC TRANSLATION ACCESS:          0  HIT:          0  MISS:          0
LLC PREFETCH  REQUESTED:          0  ISSUED:          0  USEFUL:          0  USELESS:          0
LLC AVERAGE MISS LATENCY: 73.3 cycles

DRAM Statistics
 CHANNEL 0
 RQ ROW_BUFFER_HIT:       1605  ROW_BUFFER_MISS:        155
 DBUS AVG_CONGESTED_CYCLE:     3.8359
 WQ ROW_BUFFER_HIT:          0  ROW_BUFFER_MISS:          0  FULL:          0


CPU 0 Branch Prediction Accuracy: 99.1746% MPKI: 2.95953 Average ROB Occupancy at Mispredict: 131.203
Branch type MPKI
BRANCH_DIRECT_JUMP: 0
BRANCH_INDIRECT: 0
BRANCH_CONDITIONAL: 2.95988
BRANCH_DIRECT_CALL: 0
BRANCH_INDIRECT_CALL: 0
BRANCH_RETURN: 0

